<configuration>
    <input>
        <net-file value="intersection/environment.net.xml"/>
        <route-files value="intersection/episode_routes.rou.xml"/>
    </input>
    <time>
        <begin value="0"/>
        <end value="3600"/>
        <step-length value="0.5"/>
    </time>
</configuration>
