<routes>
    <vType id="car" accel="1.0" decel="4.5" length="5.0" minGap="2.5" maxSpeed="25.0" sigma="0.5" color="1,0,0"/>
    <route id="W_E" edges="W_in E_out"/>
    <route id="W_N" edges="W_in N_out"/>
    <route id="W_S" edges="W_in S_out"/>
    <route id="E_W" edges="E_in W_out"/>
    <route id="E_N" edges="E_in N_out"/>
    <route id="E_S" edges="E_in S_out"/>
    <route id="N_S" edges="N_in S_out"/>
    <route id="N_W" edges="N_in W_out"/>
    <route id="N_E" edges="N_in E_out"/>
    <route id="S_N" edges="S_in N_out"/>
    <route id="S_W" edges="S_in W_out"/>
    <route id="S_E" edges="S_in E_out"/>
    <vehicle id="W_N_0" type="car" route="W_N" depart="0" departLane="random" departSpeed="10"/>
    <vehicle id="S_W_1" type="car" route="S_W" depart="13" departLane="random" departSpeed="10"/>
    <vehicle id="E_W_2" type="car" route="E_W" depart="34" departLane="random" departSpeed="10"/>
    <vehicle id="S_N_3" type="car" route="S_N" depart="41" departLane="random" departSpeed="10"/>
    <vehicle id="N_E_4" type="car" route="N_E" depart="43" departLane="random" departSpeed="10"/>
    <vehicle id="S_E_5" type="car" route="S_E" depart="51" departLane="random" departSpeed="10"/>
    <vehicle id="S_N_6" type="car" route="S_N" depart="73" departLane="random" departSpeed="10"/>
    <vehicle id="E_S_7" type="car" route="E_S" depart="75" departLane="random" departSpeed="10"/>
    <vehicle id="W_S_8" type="car" route="W_S" depart="80" departLane="random" departSpeed="10"/>
    <vehicle id="E_W_9" type="car" route="E_W" depart="89" departLane="random" departSpeed="10"/>
    <vehicle id="W_N_10" type="car" route="W_N" depart="94" departLane="random" departSpeed="10"/>
    <vehicle id="S_E_11" type="car" route="S_E" depart="95" departLane="random" departSpeed="10"/>
    <vehicle id="E_N_12" type="car" route="E_N" depart="97" departLane="random" departSpeed="10"/>
    <vehicle id="E_W_13" type="car" route="E_W" depart="97" departLane="random" departSpeed="10"/>
    <vehicle id="N_S_14" type="car" route="N_S" depart="98" departLane="random" departSpeed="10"/>
    <vehicle id="W_N_15" type="car" route="W_N" depart="99" departLane="random" departSpeed="10"/>
    <vehicle id="W_N_16" type="car" route="W_N" depart="101" departLane="random" departSpeed="10"/>
    <vehicle id="W_S_17" type="car" route="W_S" depart="103" departLane="random" departSpeed="10"/>
    <vehicle id="E_N_18" type="car" route="E_N" depart="103" departLane="random" departSpeed="10"/>
    <vehicle id="S_E_19" type="car" route="S_E" depart="104" departLane="random" departSpeed="10"/>
    <vehicle id="N_S_20" type="car" route="N_S" depart="105" departLane="random" departSpeed="10"/>
    <vehicle id="W_S_21" type="car" route="W_S" depart="106" departLane="random" departSpeed="10"/>
    <vehicle id="N_W_22" type="car" route="N_W" depart="106" departLane="random" departSpeed="10"/>
    <vehicle id="N_S_23" type="car" route="N_S" depart="109" departLane="random" departSpeed="10"/>
    <vehicle id="S_N_24" type="car" route="S_N" depart="110" departLane="random" departSpeed="10"/>
    <vehicle id="E_N_25" type="car" route="E_N" depart="111" departLane="random" departSpeed="10"/>
    <vehicle id="W_N_26" type="car" route="W_N" depart="111" departLane="random" departSpeed="10"/>
    <vehicle id="S_W_27" type="car" route="S_W" depart="111" departLane="random" departSpeed="10"/>
    <vehicle id="E_W_28" type="car" route="E_W" depart="113" departLane="random" departSpeed="10"/>
    <vehicle id="S_W_29" type="car" route="S_W" depart="116" departLane="random" departSpeed="10"/>
    <vehicle id="W_N_30" type="car" route="W_N" depart="127" departLane="random" departSpeed="10"/>
    <vehicle id="E_S_31" type="car" route="E_S" depart="132" departLane="random" departSpeed="10"/>
    <vehicle id="W_S_32" type="car" route="W_S" depart="136" departLane="random" departSpeed="10"/>
    <vehicle id="E_W_33" type="car" route="E_W" depart="138" departLane="random" departSpeed="10"/>
    <vehicle id="N_W_34" type="car" route="N_W" depart="140" departLane="random" departSpeed="10"/>
    <vehicle id="S_E_35" type="car" route="S_E" depart="140" departLane="random" departSpeed="10"/>
    <vehicle id="S_W_36" type="car" route="S_W" depart="142" departLane="random" departSpeed="10"/>
    <vehicle id="S_E_37" type="car" route="S_E" depart="142" departLane="random" departSpeed="10"/>
    <vehicle id="W_S_38" type="car" route="W_S" depart="142" departLane="random" departSpeed="10"/>
    <vehicle id="W_E_39" type="car" route="W_E" depart="145" departLane="random" departSpeed="10"/>
    <vehicle id="W_S_40" type="car" route="W_S" depart="145" departLane="random" departSpeed="10"/>
    <vehicle id="W_E_41" type="car" route="W_E" depart="147" departLane="random" departSpeed="10"/>
    <vehicle id="N_W_42" type="car" route="N_W" depart="152" departLane="random" departSpeed="10"/>
    <vehicle id="W_N_43" type="car" route="W_N" depart="152" departLane="random" departSpeed="10"/>
    <vehicle id="S_E_44" type="car" route="S_E" depart="153" departLane="random" departSpeed="10"/>
    <vehicle id="N_W_45" type="car" route="N_W" depart="155" departLane="random" departSpeed="10"/>
    <vehicle id="S_N_46" type="car" route="S_N" depart="156" departLane="random" departSpeed="10"/>
    <vehicle id="E_S_47" type="car" route="E_S" depart="157" departLane="random" departSpeed="10"/>
    <vehicle id="W_N_48" type="car" route="W_N" depart="163" departLane="random" departSpeed="10"/>
    <vehicle id="E_W_49" type="car" route="E_W" depart="164" departLane="random" departSpeed="10"/>
    <vehicle id="S_W_50" type="car" route="S_W" depart="165" departLane="random" departSpeed="10"/>
    <vehicle id="W_S_51" type="car" route="W_S" depart="167" departLane="random" departSpeed="10"/>
    <vehicle id="W_S_52" type="car" route="W_S" depart="168" departLane="random" departSpeed="10"/>
    <vehicle id="E_W_53" type="car" route="E_W" depart="169" departLane="random" departSpeed="10"/>
    <vehicle id="N_S_54" type="car" route="N_S" depart="169" departLane="random" departSpeed="10"/>
    <vehicle id="N_E_55" type="car" route="N_E" depart="171" departLane="random" departSpeed="10"/>
    <vehicle id="W_S_56" type="car" route="W_S" depart="172" departLane="random" departSpeed="10"/>
    <vehicle id="S_E_57" type="car" route="S_E" depart="175" departLane="random" departSpeed="10"/>
    <vehicle id="N_E_58" type="car" route="N_E" depart="175" departLane="random" departSpeed="10"/>
    <vehicle id="E_W_59" type="car" route="E_W" depart="177" departLane="random" departSpeed="10"/>
    <vehicle id="W_E_60" type="car" route="W_E" depart="179" departLane="random" departSpeed="10"/>
    <vehicle id="E_N_61" type="car" route="E_N" depart="182" departLane="random" departSpeed="10"/>
    <vehicle id="E_N_62" type="car" route="E_N" depart="186" departLane="random" departSpeed="10"/>
    <vehicle id="W_N_63" type="car" route="W_N" depart="188" departLane="random" departSpeed="10"/>
    <vehicle id="W_N_64" type="car" route="W_N" depart="189" departLane="random" departSpeed="10"/>
    <vehicle id="S_W_65" type="car" route="S_W" depart="189" departLane="random" departSpeed="10"/>
    <vehicle id="N_W_66" type="car" route="N_W" depart="189" departLane="random" departSpeed="10"/>
    <vehicle id="W_N_67" type="car" route="W_N" depart="190" departLane="random" departSpeed="10"/>
    <vehicle id="W_N_68" type="car" route="W_N" depart="190" departLane="random" departSpeed="10"/>
    <vehicle id="W_E_69" type="car" route="W_E" depart="193" departLane="random" departSpeed="10"/>
    <vehicle id="S_W_70" type="car" route="S_W" depart="194" departLane="random" departSpeed="10"/>
    <vehicle id="S_W_71" type="car" route="S_W" depart="195" departLane="random" departSpeed="10"/>
    <vehicle id="S_N_72" type="car" route="S_N" depart="196" departLane="random" departSpeed="10"/>
    <vehicle id="N_S_73" type="car" route="N_S" depart="201" departLane="random" departSpeed="10"/>
    <vehicle id="W_N_74" type="car" route="W_N" depart="201" departLane="random" departSpeed="10"/>
    <vehicle id="N_S_75" type="car" route="N_S" depart="202" departLane="random" departSpeed="10"/>
    <vehicle id="E_N_76" type="car" route="E_N" depart="204" departLane="random" departSpeed="10"/>
    <vehicle id="W_E_77" type="car" route="W_E" depart="204" departLane="random" departSpeed="10"/>
    <vehicle id="S_N_78" type="car" route="S_N" depart="207" departLane="random" departSpeed="10"/>
    <vehicle id="W_N_79" type="car" route="W_N" depart="207" departLane="random" departSpeed="10"/>
    <vehicle id="E_N_80" type="car" route="E_N" depart="209" departLane="random" departSpeed="10"/>
    <vehicle id="N_W_81" type="car" route="N_W" depart="210" departLane="random" departSpeed="10"/>
    <vehicle id="E_W_82" type="car" route="E_W" depart="211" departLane="random" departSpeed="10"/>
    <vehicle id="W_E_83" type="car" route="W_E" depart="212" departLane="random" departSpeed="10"/>
    <vehicle id="N_E_84" type="car" route="N_E" depart="212" departLane="random" departSpeed="10"/>
    <vehicle id="E_S_85" type="car" route="E_S" depart="215" departLane="random" departSpeed="10"/>
    <vehicle id="W_E_86" type="car" route="W_E" depart="215" departLane="random" departSpeed="10"/>
    <vehicle id="E_N_87" type="car" route="E_N" depart="217" departLane="random" departSpeed="10"/>
    <vehicle id="N_W_88" type="car" route="N_W" depart="218" departLane="random" departSpeed="10"/>
    <vehicle id="N_W_89" type="car" route="N_W" depart="219" departLane="random" departSpeed="10"/>
    <vehicle id="S_N_90" type="car" route="S_N" depart="223" departLane="random" departSpeed="10"/>
    <vehicle id="S_E_91" type="car" route="S_E" depart="223" departLane="random" departSpeed="10"/>
    <vehicle id="N_E_92" type="car" route="N_E" depart="227" departLane="random" departSpeed="10"/>
    <vehicle id="E_N_93" type="car" route="E_N" depart="227" departLane="random" departSpeed="10"/>
    <vehicle id="S_W_94" type="car" route="S_W" depart="229" departLane="random" departSpeed="10"/>
    <vehicle id="W_E_95" type="car" route="W_E" depart="230" departLane="random" departSpeed="10"/>
    <vehicle id="W_E_96" type="car" route="W_E" depart="231" departLane="random" departSpeed="10"/>
    <vehicle id="S_W_97" type="car" route="S_W" depart="232" departLane="random" departSpeed="10"/>
    <vehicle id="W_S_98" type="car" route="W_S" depart="232" departLane="random" departSpeed="10"/>
    <vehicle id="W_E_99" type="car" route="W_E" depart="235" departLane="random" departSpeed="10"/>
    <vehicle id="E_N_100" type="car" route="E_N" depart="236" departLane="random" departSpeed="10"/>
    <vehicle id="E_S_101" type="car" route="E_S" depart="237" departLane="random" departSpeed="10"/>
    <vehicle id="E_N_102" type="car" route="E_N" depart="242" departLane="random" departSpeed="10"/>
    <vehicle id="E_W_103" type="car" route="E_W" depart="246" departLane="random" departSpeed="10"/>
    <vehicle id="N_W_104" type="car" route="N_W" depart="247" departLane="random" departSpeed="10"/>
    <vehicle id="S_E_105" type="car" route="S_E" depart="249" departLane="random" departSpeed="10"/>
    <vehicle id="E_N_106" type="car" route="E_N" depart="250" departLane="random" departSpeed="10"/>
    <vehicle id="S_N_107" type="car" route="S_N" depart="252" departLane="random" departSpeed="10"/>
    <vehicle id="N_S_108" type="car" route="N_S" depart="252" departLane="random" departSpeed="10"/>
    <vehicle id="N_E_109" type="car" route="N_E" depart="253" departLane="random" departSpeed="10"/>
    <vehicle id="S_N_110" type="car" route="S_N" depart="254" departLane="random" departSpeed="10"/>
    <vehicle id="N_S_111" type="car" route="N_S" depart="256" departLane="random" departSpeed="10"/>
    <vehicle id="E_N_112" type="car" route="E_N" depart="259" departLane="random" departSpeed="10"/>
    <vehicle id="W_E_113" type="car" route="W_E" depart="261" departLane="random" departSpeed="10"/>
    <vehicle id="N_W_114" type="car" route="N_W" depart="261" departLane="random" departSpeed="10"/>
    <vehicle id="E_S_115" type="car" route="E_S" depart="264" departLane="random" departSpeed="10"/>
    <vehicle id="E_S_116" type="car" route="E_S" depart="267" departLane="random" departSpeed="10"/>
    <vehicle id="N_W_117" type="car" route="N_W" depart="267" departLane="random" departSpeed="10"/>
    <vehicle id="S_N_118" type="car" route="S_N" depart="271" departLane="random" departSpeed="10"/>
    <vehicle id="S_W_119" type="car" route="S_W" depart="271" departLane="random" departSpeed="10"/>
    <vehicle id="E_S_120" type="car" route="E_S" depart="271" departLane="random" departSpeed="10"/>
    <vehicle id="E_W_121" type="car" route="E_W" depart="272" departLane="random" departSpeed="10"/>
    <vehicle id="N_W_122" type="car" route="N_W" depart="273" departLane="random" departSpeed="10"/>
    <vehicle id="E_W_123" type="car" route="E_W" depart="273" departLane="random" departSpeed="10"/>
    <vehicle id="W_E_124" type="car" route="W_E" depart="274" departLane="random" departSpeed="10"/>
    <vehicle id="S_W_125" type="car" route="S_W" depart="274" departLane="random" departSpeed="10"/>
    <vehicle id="N_S_126" type="car" route="N_S" depart="276" departLane="random" departSpeed="10"/>
    <vehicle id="E_W_127" type="car" route="E_W" depart="278" departLane="random" departSpeed="10"/>
    <vehicle id="W_E_128" type="car" route="W_E" depart="280" departLane="random" departSpeed="10"/>
    <vehicle id="N_S_129" type="car" route="N_S" depart="283" departLane="random" departSpeed="10"/>
    <vehicle id="E_S_130" type="car" route="E_S" depart="285" departLane="random" departSpeed="10"/>
    <vehicle id="N_E_131" type="car" route="N_E" depart="286" departLane="random" departSpeed="10"/>
    <vehicle id="N_E_132" type="car" route="N_E" depart="287" departLane="random" departSpeed="10"/>
    <vehicle id="N_E_133" type="car" route="N_E" depart="289" departLane="random" departSpeed="10"/>
    <vehicle id="N_E_134" type="car" route="N_E" depart="289" departLane="random" departSpeed="10"/>
    <vehicle id="N_E_135" type="car" route="N_E" depart="289" departLane="random" departSpeed="10"/>
    <vehicle id="W_E_136" type="car" route="W_E" depart="293" departLane="random" departSpeed="10"/>
    <vehicle id="S_E_137" type="car" route="S_E" depart="293" departLane="random" departSpeed="10"/>
    <vehicle id="W_S_138" type="car" route="W_S" depart="298" departLane="random" departSpeed="10"/>
    <vehicle id="E_N_139" type="car" route="E_N" depart="298" departLane="random" departSpeed="10"/>
    <vehicle id="N_S_140" type="car" route="N_S" depart="298" departLane="random" departSpeed="10"/>
    <vehicle id="N_S_141" type="car" route="N_S" depart="298" departLane="random" departSpeed="10"/>
    <vehicle id="W_S_142" type="car" route="W_S" depart="299" departLane="random" departSpeed="10"/>
    <vehicle id="E_W_143" type="car" route="E_W" depart="299" departLane="random" departSpeed="10"/>
    <vehicle id="N_E_144" type="car" route="N_E" depart="301" departLane="random" departSpeed="10"/>
    <vehicle id="N_S_145" type="car" route="N_S" depart="302" departLane="random" departSpeed="10"/>
    <vehicle id="W_S_146" type="car" route="W_S" depart="303" departLane="random" departSpeed="10"/>
    <vehicle id="S_N_147" type="car" route="S_N" depart="304" departLane="random" departSpeed="10"/>
    <vehicle id="S_E_148" type="car" route="S_E" depart="304" departLane="random" departSpeed="10"/>
    <vehicle id="E_W_149" type="car" route="E_W" depart="305" departLane="random" departSpeed="10"/>
    <vehicle id="N_E_150" type="car" route="N_E" depart="308" departLane="random" departSpeed="10"/>
    <vehicle id="W_S_151" type="car" route="W_S" depart="309" departLane="random" departSpeed="10"/>
    <vehicle id="E_N_152" type="car" route="E_N" depart="314" departLane="random" departSpeed="10"/>
    <vehicle id="W_S_153" type="car" route="W_S" depart="316" departLane="random" departSpeed="10"/>
    <vehicle id="N_S_154" type="car" route="N_S" depart="316" departLane="random" departSpeed="10"/>
    <vehicle id="N_W_155" type="car" route="N_W" depart="316" departLane="random" departSpeed="10"/>
    <vehicle id="W_S_156" type="car" route="W_S" depart="322" departLane="random" departSpeed="10"/>
    <vehicle id="N_W_157" type="car" route="N_W" depart="322" departLane="random" departSpeed="10"/>
    <vehicle id="S_E_158" type="car" route="S_E" depart="324" departLane="random" departSpeed="10"/>
    <vehicle id="N_S_159" type="car" route="N_S" depart="325" departLane="random" departSpeed="10"/>
    <vehicle id="N_W_160" type="car" route="N_W" depart="326" departLane="random" departSpeed="10"/>
    <vehicle id="S_W_161" type="car" route="S_W" depart="326" departLane="random" departSpeed="10"/>
    <vehicle id="E_N_162" type="car" route="E_N" depart="327" departLane="random" departSpeed="10"/>
    <vehicle id="N_W_163" type="car" route="N_W" depart="327" departLane="random" departSpeed="10"/>
    <vehicle id="W_E_164" type="car" route="W_E" depart="329" departLane="random" departSpeed="10"/>
    <vehicle id="N_S_165" type="car" route="N_S" depart="330" departLane="random" departSpeed="10"/>
    <vehicle id="E_W_166" type="car" route="E_W" depart="333" departLane="random" departSpeed="10"/>
    <vehicle id="E_W_167" type="car" route="E_W" depart="335" departLane="random" departSpeed="10"/>
    <vehicle id="S_W_168" type="car" route="S_W" depart="336" departLane="random" departSpeed="10"/>
    <vehicle id="E_N_169" type="car" route="E_N" depart="336" departLane="random" departSpeed="10"/>
    <vehicle id="E_W_170" type="car" route="E_W" depart="337" departLane="random" departSpeed="10"/>
    <vehicle id="S_E_171" type="car" route="S_E" depart="338" departLane="random" departSpeed="10"/>
    <vehicle id="N_E_172" type="car" route="N_E" depart="340" departLane="random" departSpeed="10"/>
    <vehicle id="E_W_173" type="car" route="E_W" depart="342" departLane="random" departSpeed="10"/>
    <vehicle id="S_E_174" type="car" route="S_E" depart="346" departLane="random" departSpeed="10"/>
    <vehicle id="N_E_175" type="car" route="N_E" depart="348" departLane="random" departSpeed="10"/>
    <vehicle id="N_E_176" type="car" route="N_E" depart="352" departLane="random" departSpeed="10"/>
    <vehicle id="W_N_177" type="car" route="W_N" depart="353" departLane="random" departSpeed="10"/>
    <vehicle id="S_N_178" type="car" route="S_N" depart="355" departLane="random" departSpeed="10"/>
    <vehicle id="W_N_179" type="car" route="W_N" depart="356" departLane="random" departSpeed="10"/>
    <vehicle id="S_E_180" type="car" route="S_E" depart="356" departLane="random" departSpeed="10"/>
    <vehicle id="W_E_181" type="car" route="W_E" depart="357" departLane="random" departSpeed="10"/>
    <vehicle id="S_W_182" type="car" route="S_W" depart="358" departLane="random" departSpeed="10"/>
    <vehicle id="W_S_183" type="car" route="W_S" depart="358" departLane="random" departSpeed="10"/>
    <vehicle id="W_N_184" type="car" route="W_N" depart="360" departLane="random" departSpeed="10"/>
    <vehicle id="E_S_185" type="car" route="E_S" depart="360" departLane="random" departSpeed="10"/>
    <vehicle id="W_S_186" type="car" route="W_S" depart="364" departLane="random" departSpeed="10"/>
    <vehicle id="S_E_187" type="car" route="S_E" depart="364" departLane="random" departSpeed="10"/>
    <vehicle id="E_N_188" type="car" route="E_N" depart="365" departLane="random" departSpeed="10"/>
    <vehicle id="N_W_189" type="car" route="N_W" depart="366" departLane="random" departSpeed="10"/>
    <vehicle id="W_E_190" type="car" route="W_E" depart="370" departLane="random" departSpeed="10"/>
    <vehicle id="N_W_191" type="car" route="N_W" depart="370" departLane="random" departSpeed="10"/>
    <vehicle id="E_W_192" type="car" route="E_W" depart="370" departLane="random" departSpeed="10"/>
    <vehicle id="S_N_193" type="car" route="S_N" depart="371" departLane="random" departSpeed="10"/>
    <vehicle id="W_E_194" type="car" route="W_E" depart="377" departLane="random" departSpeed="10"/>
    <vehicle id="W_E_195" type="car" route="W_E" depart="380" departLane="random" departSpeed="10"/>
    <vehicle id="W_S_196" type="car" route="W_S" depart="387" departLane="random" departSpeed="10"/>
    <vehicle id="W_N_197" type="car" route="W_N" depart="388" departLane="random" departSpeed="10"/>
    <vehicle id="N_S_198" type="car" route="N_S" depart="388" departLane="random" departSpeed="10"/>
    <vehicle id="N_W_199" type="car" route="N_W" depart="394" departLane="random" departSpeed="10"/>
    <vehicle id="E_S_200" type="car" route="E_S" depart="398" departLane="random" departSpeed="10"/>
    <vehicle id="E_W_201" type="car" route="E_W" depart="399" departLane="random" departSpeed="10"/>
    <vehicle id="W_S_202" type="car" route="W_S" depart="401" departLane="random" departSpeed="10"/>
    <vehicle id="N_W_203" type="car" route="N_W" depart="404" departLane="random" departSpeed="10"/>
    <vehicle id="E_S_204" type="car" route="E_S" depart="405" departLane="random" departSpeed="10"/>
    <vehicle id="S_E_205" type="car" route="S_E" depart="405" departLane="random" departSpeed="10"/>
    <vehicle id="W_N_206" type="car" route="W_N" depart="408" departLane="random" departSpeed="10"/>
    <vehicle id="E_S_207" type="car" route="E_S" depart="409" departLane="random" departSpeed="10"/>
    <vehicle id="W_S_208" type="car" route="W_S" depart="410" departLane="random" departSpeed="10"/>
    <vehicle id="S_N_209" type="car" route="S_N" depart="411" departLane="random" departSpeed="10"/>
    <vehicle id="E_S_210" type="car" route="E_S" depart="414" departLane="random" departSpeed="10"/>
    <vehicle id="S_W_211" type="car" route="S_W" depart="419" departLane="random" departSpeed="10"/>
    <vehicle id="W_S_212" type="car" route="W_S" depart="419" departLane="random" departSpeed="10"/>
    <vehicle id="S_W_213" type="car" route="S_W" depart="419" departLane="random" departSpeed="10"/>
    <vehicle id="N_W_214" type="car" route="N_W" depart="419" departLane="random" departSpeed="10"/>
    <vehicle id="N_W_215" type="car" route="N_W" depart="420" departLane="random" departSpeed="10"/>
    <vehicle id="S_N_216" type="car" route="S_N" depart="423" departLane="random" departSpeed="10"/>
    <vehicle id="E_W_217" type="car" route="E_W" depart="424" departLane="random" departSpeed="10"/>
    <vehicle id="E_N_218" type="car" route="E_N" depart="425" departLane="random" departSpeed="10"/>
    <vehicle id="S_E_219" type="car" route="S_E" depart="428" departLane="random" departSpeed="10"/>
    <vehicle id="N_S_220" type="car" route="N_S" depart="429" departLane="random" departSpeed="10"/>
    <vehicle id="N_S_221" type="car" route="N_S" depart="432" departLane="random" departSpeed="10"/>
    <vehicle id="E_S_222" type="car" route="E_S" depart="434" departLane="random" departSpeed="10"/>
    <vehicle id="N_W_223" type="car" route="N_W" depart="435" departLane="random" departSpeed="10"/>
    <vehicle id="W_S_224" type="car" route="W_S" depart="436" departLane="random" departSpeed="10"/>
    <vehicle id="W_E_225" type="car" route="W_E" depart="436" departLane="random" departSpeed="10"/>
    <vehicle id="E_W_226" type="car" route="E_W" depart="436" departLane="random" departSpeed="10"/>
    <vehicle id="W_E_227" type="car" route="W_E" depart="438" departLane="random" departSpeed="10"/>
    <vehicle id="S_W_228" type="car" route="S_W" depart="440" departLane="random" departSpeed="10"/>
    <vehicle id="S_E_229" type="car" route="S_E" depart="442" departLane="random" departSpeed="10"/>
    <vehicle id="N_E_230" type="car" route="N_E" depart="449" departLane="random" departSpeed="10"/>
    <vehicle id="E_S_231" type="car" route="E_S" depart="449" departLane="random" departSpeed="10"/>
    <vehicle id="N_W_232" type="car" route="N_W" depart="450" departLane="random" departSpeed="10"/>
    <vehicle id="W_S_233" type="car" route="W_S" depart="451" departLane="random" departSpeed="10"/>
    <vehicle id="E_S_234" type="car" route="E_S" depart="453" departLane="random" departSpeed="10"/>
    <vehicle id="W_S_235" type="car" route="W_S" depart="457" departLane="random" departSpeed="10"/>
    <vehicle id="N_W_236" type="car" route="N_W" depart="476" departLane="random" departSpeed="10"/>
    <vehicle id="N_S_237" type="car" route="N_S" depart="485" departLane="random" departSpeed="10"/>
    <vehicle id="W_N_238" type="car" route="W_N" depart="486" departLane="random" departSpeed="10"/>
    <vehicle id="E_S_239" type="car" route="E_S" depart="488" departLane="random" departSpeed="10"/>
    <vehicle id="E_N_240" type="car" route="E_N" depart="490" departLane="random" departSpeed="10"/>
    <vehicle id="S_E_241" type="car" route="S_E" depart="494" departLane="random" departSpeed="10"/>
    <vehicle id="S_W_242" type="car" route="S_W" depart="499" departLane="random" departSpeed="10"/>
    <vehicle id="E_W_243" type="car" route="E_W" depart="500" departLane="random" departSpeed="10"/>
    <vehicle id="W_E_244" type="car" route="W_E" depart="500" departLane="random" departSpeed="10"/>
    <vehicle id="E_S_245" type="car" route="E_S" depart="510" departLane="random" departSpeed="10"/>
    <vehicle id="W_N_246" type="car" route="W_N" depart="515" departLane="random" departSpeed="10"/>
    <vehicle id="N_E_247" type="car" route="N_E" depart="517" departLane="random" departSpeed="10"/>
    <vehicle id="N_S_248" type="car" route="N_S" depart="524" departLane="random" departSpeed="10"/>
    <vehicle id="S_W_249" type="car" route="S_W" depart="524" departLane="random" departSpeed="10"/>
    <vehicle id="S_W_250" type="car" route="S_W" depart="525" departLane="random" departSpeed="10"/>
    <vehicle id="N_E_251" type="car" route="N_E" depart="538" departLane="random" departSpeed="10"/>
    <vehicle id="W_E_252" type="car" route="W_E" depart="559" departLane="random" departSpeed="10"/>
    <vehicle id="W_S_253" type="car" route="W_S" depart="567" departLane="random" departSpeed="10"/>
    <vehicle id="S_E_254" type="car" route="S_E" depart="570" departLane="random" departSpeed="10"/>
    <vehicle id="S_E_255" type="car" route="S_E" depart="578" departLane="random" departSpeed="10"/>
    <vehicle id="W_N_256" type="car" route="W_N" depart="578" departLane="random" departSpeed="10"/>
    <vehicle id="W_E_257" type="car" route="W_E" depart="585" departLane="random" departSpeed="10"/>
    <vehicle id="S_W_258" type="car" route="S_W" depart="591" departLane="random" departSpeed="10"/>
    <vehicle id="S_N_259" type="car" route="S_N" depart="602" departLane="random" departSpeed="10"/>
    <vehicle id="E_S_260" type="car" route="E_S" depart="605" departLane="random" departSpeed="10"/>
    <vehicle id="E_W_261" type="car" route="E_W" depart="613" departLane="random" departSpeed="10"/>
    <vehicle id="S_E_262" type="car" route="S_E" depart="614" departLane="random" departSpeed="10"/>
    <vehicle id="N_S_263" type="car" route="N_S" depart="618" departLane="random" departSpeed="10"/>
    <vehicle id="N_E_264" type="car" route="N_E" depart="643" departLane="random" departSpeed="10"/>
    <vehicle id="S_E_265" type="car" route="S_E" depart="658" departLane="random" departSpeed="10"/>
    <vehicle id="E_W_266" type="car" route="E_W" depart="683" departLane="random" departSpeed="10"/>
    <vehicle id="N_W_267" type="car" route="N_W" depart="686" departLane="random" departSpeed="10"/>
    <vehicle id="S_W_268" type="car" route="S_W" depart="698" departLane="random" departSpeed="10"/>
    <vehicle id="W_E_269" type="car" route="W_E" depart="704" departLane="random" departSpeed="10"/>
    <vehicle id="S_N_270" type="car" route="S_N" depart="705" departLane="random" departSpeed="10"/>
    <vehicle id="S_E_271" type="car" route="S_E" depart="713" departLane="random" departSpeed="10"/>
    <vehicle id="E_S_272" type="car" route="E_S" depart="724" departLane="random" departSpeed="10"/>
    <vehicle id="E_W_273" type="car" route="E_W" depart="781" departLane="random" departSpeed="10"/>
    <vehicle id="S_W_274" type="car" route="S_W" depart="847" departLane="random" departSpeed="10"/>
    <vehicle id="S_N_275" type="car" route="S_N" depart="946" departLane="random" departSpeed="10"/>
    <vehicle id="E_W_276" type="car" route="E_W" depart="1000" departLane="random" departSpeed="10"/>
</routes>
