<routes>
    <vType id="car" accel="1.0" decel="4.5" length="5.0" minGap="2.5" maxSpeed="25.0" sigma="0.5" color="1,0,0"/>
    <route id="W_E" edges="W_in E_out"/>
    <route id="W_N" edges="W_in N_out"/>
    <route id="W_S" edges="W_in S_out"/>
    <route id="E_W" edges="E_in W_out"/>
    <route id="E_N" edges="E_in N_out"/>
    <route id="E_S" edges="E_in S_out"/>
    <route id="N_S" edges="N_in S_out"/>
    <route id="N_W" edges="N_in W_out"/>
    <route id="N_E" edges="N_in E_out"/>
    <route id="S_N" edges="S_in N_out"/>
    <route id="S_W" edges="S_in W_out"/>
    <route id="S_E" edges="S_in E_out"/>
    <vehicle id="S_E_0" type="car" route="S_E" depart="0" departLane="random" departSpeed="10"/>
    <vehicle id="E_N_1" type="car" route="E_N" depart="9" departLane="random" departSpeed="10"/>
    <vehicle id="N_S_2" type="car" route="N_S" depart="9" departLane="random" departSpeed="10"/>
    <vehicle id="E_W_3" type="car" route="E_W" depart="17" departLane="random" departSpeed="10"/>
    <vehicle id="S_E_4" type="car" route="S_E" depart="28" departLane="random" departSpeed="10"/>
    <vehicle id="W_S_5" type="car" route="W_S" depart="35" departLane="random" departSpeed="10"/>
    <vehicle id="W_E_6" type="car" route="W_E" depart="36" departLane="random" departSpeed="10"/>
    <vehicle id="N_E_7" type="car" route="N_E" depart="36" departLane="random" departSpeed="10"/>
    <vehicle id="N_S_8" type="car" route="N_S" depart="43" departLane="random" departSpeed="10"/>
    <vehicle id="S_E_9" type="car" route="S_E" depart="44" departLane="random" departSpeed="10"/>
    <vehicle id="N_E_10" type="car" route="N_E" depart="46" departLane="random" departSpeed="10"/>
    <vehicle id="N_E_11" type="car" route="N_E" depart="57" departLane="random" departSpeed="10"/>
    <vehicle id="S_W_12" type="car" route="S_W" depart="63" departLane="random" departSpeed="10"/>
    <vehicle id="S_N_13" type="car" route="S_N" depart="65" departLane="random" departSpeed="10"/>
    <vehicle id="E_S_14" type="car" route="E_S" depart="69" departLane="random" departSpeed="10"/>
    <vehicle id="W_N_15" type="car" route="W_N" depart="69" departLane="random" departSpeed="10"/>
    <vehicle id="N_E_16" type="car" route="N_E" depart="70" departLane="random" departSpeed="10"/>
    <vehicle id="E_N_17" type="car" route="E_N" depart="71" departLane="random" departSpeed="10"/>
    <vehicle id="S_W_18" type="car" route="S_W" depart="73" departLane="random" departSpeed="10"/>
    <vehicle id="N_E_19" type="car" route="N_E" depart="73" departLane="random" departSpeed="10"/>
    <vehicle id="W_N_20" type="car" route="W_N" depart="74" departLane="random" departSpeed="10"/>
    <vehicle id="E_N_21" type="car" route="E_N" depart="74" departLane="random" departSpeed="10"/>
    <vehicle id="E_W_22" type="car" route="E_W" depart="74" departLane="random" departSpeed="10"/>
    <vehicle id="S_W_23" type="car" route="S_W" depart="77" departLane="random" departSpeed="10"/>
    <vehicle id="W_N_24" type="car" route="W_N" depart="79" departLane="random" departSpeed="10"/>
    <vehicle id="W_N_25" type="car" route="W_N" depart="80" departLane="random" departSpeed="10"/>
    <vehicle id="S_E_26" type="car" route="S_E" depart="86" departLane="random" departSpeed="10"/>
    <vehicle id="N_W_27" type="car" route="N_W" depart="87" departLane="random" departSpeed="10"/>
    <vehicle id="S_N_28" type="car" route="S_N" depart="94" departLane="random" departSpeed="10"/>
    <vehicle id="N_W_29" type="car" route="N_W" depart="94" departLane="random" departSpeed="10"/>
    <vehicle id="N_E_30" type="car" route="N_E" depart="97" departLane="random" departSpeed="10"/>
    <vehicle id="E_N_31" type="car" route="E_N" depart="99" departLane="random" departSpeed="10"/>
    <vehicle id="E_N_32" type="car" route="E_N" depart="99" departLane="random" departSpeed="10"/>
    <vehicle id="N_W_33" type="car" route="N_W" depart="101" departLane="random" departSpeed="10"/>
    <vehicle id="N_W_34" type="car" route="N_W" depart="104" departLane="random" departSpeed="10"/>
    <vehicle id="S_E_35" type="car" route="S_E" depart="113" departLane="random" departSpeed="10"/>
    <vehicle id="N_S_36" type="car" route="N_S" depart="115" departLane="random" departSpeed="10"/>
    <vehicle id="W_E_37" type="car" route="W_E" depart="116" departLane="random" departSpeed="10"/>
    <vehicle id="S_E_38" type="car" route="S_E" depart="117" departLane="random" departSpeed="10"/>
    <vehicle id="N_E_39" type="car" route="N_E" depart="117" departLane="random" departSpeed="10"/>
    <vehicle id="S_N_40" type="car" route="S_N" depart="120" departLane="random" departSpeed="10"/>
    <vehicle id="N_E_41" type="car" route="N_E" depart="122" departLane="random" departSpeed="10"/>
    <vehicle id="E_W_42" type="car" route="E_W" depart="123" departLane="random" departSpeed="10"/>
    <vehicle id="E_W_43" type="car" route="E_W" depart="124" departLane="random" departSpeed="10"/>
    <vehicle id="S_N_44" type="car" route="S_N" depart="124" departLane="random" departSpeed="10"/>
    <vehicle id="W_N_45" type="car" route="W_N" depart="125" departLane="random" departSpeed="10"/>
    <vehicle id="S_E_46" type="car" route="S_E" depart="125" departLane="random" departSpeed="10"/>
    <vehicle id="S_N_47" type="car" route="S_N" depart="131" departLane="random" departSpeed="10"/>
    <vehicle id="N_S_48" type="car" route="N_S" depart="132" departLane="random" departSpeed="10"/>
    <vehicle id="W_E_49" type="car" route="W_E" depart="133" departLane="random" departSpeed="10"/>
    <vehicle id="E_N_50" type="car" route="E_N" depart="133" departLane="random" departSpeed="10"/>
    <vehicle id="S_N_51" type="car" route="S_N" depart="136" departLane="random" departSpeed="10"/>
    <vehicle id="W_E_52" type="car" route="W_E" depart="137" departLane="random" departSpeed="10"/>
    <vehicle id="W_E_53" type="car" route="W_E" depart="138" departLane="random" departSpeed="10"/>
    <vehicle id="E_W_54" type="car" route="E_W" depart="140" departLane="random" departSpeed="10"/>
    <vehicle id="E_N_55" type="car" route="E_N" depart="140" departLane="random" departSpeed="10"/>
    <vehicle id="N_E_56" type="car" route="N_E" depart="141" departLane="random" departSpeed="10"/>
    <vehicle id="N_S_57" type="car" route="N_S" depart="143" departLane="random" departSpeed="10"/>
    <vehicle id="E_W_58" type="car" route="E_W" depart="150" departLane="random" departSpeed="10"/>
    <vehicle id="N_W_59" type="car" route="N_W" depart="151" departLane="random" departSpeed="10"/>
    <vehicle id="E_W_60" type="car" route="E_W" depart="155" departLane="random" departSpeed="10"/>
    <vehicle id="E_S_61" type="car" route="E_S" depart="157" departLane="random" departSpeed="10"/>
    <vehicle id="S_N_62" type="car" route="S_N" depart="161" departLane="random" departSpeed="10"/>
    <vehicle id="N_E_63" type="car" route="N_E" depart="162" departLane="random" departSpeed="10"/>
    <vehicle id="S_N_64" type="car" route="S_N" depart="163" departLane="random" departSpeed="10"/>
    <vehicle id="E_S_65" type="car" route="E_S" depart="164" departLane="random" departSpeed="10"/>
    <vehicle id="W_E_66" type="car" route="W_E" depart="165" departLane="random" departSpeed="10"/>
    <vehicle id="W_N_67" type="car" route="W_N" depart="168" departLane="random" departSpeed="10"/>
    <vehicle id="W_N_68" type="car" route="W_N" depart="168" departLane="random" departSpeed="10"/>
    <vehicle id="S_E_69" type="car" route="S_E" depart="168" departLane="random" departSpeed="10"/>
    <vehicle id="E_W_70" type="car" route="E_W" depart="170" departLane="random" departSpeed="10"/>
    <vehicle id="S_N_71" type="car" route="S_N" depart="170" departLane="random" departSpeed="10"/>
    <vehicle id="S_N_72" type="car" route="S_N" depart="170" departLane="random" departSpeed="10"/>
    <vehicle id="E_W_73" type="car" route="E_W" depart="172" departLane="random" departSpeed="10"/>
    <vehicle id="W_N_74" type="car" route="W_N" depart="172" departLane="random" departSpeed="10"/>
    <vehicle id="N_W_75" type="car" route="N_W" depart="176" departLane="random" departSpeed="10"/>
    <vehicle id="E_W_76" type="car" route="E_W" depart="177" departLane="random" departSpeed="10"/>
    <vehicle id="E_N_77" type="car" route="E_N" depart="178" departLane="random" departSpeed="10"/>
    <vehicle id="S_N_78" type="car" route="S_N" depart="183" departLane="random" departSpeed="10"/>
    <vehicle id="S_W_79" type="car" route="S_W" depart="183" departLane="random" departSpeed="10"/>
    <vehicle id="W_E_80" type="car" route="W_E" depart="187" departLane="random" departSpeed="10"/>
    <vehicle id="S_W_81" type="car" route="S_W" depart="187" departLane="random" departSpeed="10"/>
    <vehicle id="E_N_82" type="car" route="E_N" depart="188" departLane="random" departSpeed="10"/>
    <vehicle id="W_N_83" type="car" route="W_N" depart="190" departLane="random" departSpeed="10"/>
    <vehicle id="W_E_84" type="car" route="W_E" depart="190" departLane="random" departSpeed="10"/>
    <vehicle id="S_E_85" type="car" route="S_E" depart="192" departLane="random" departSpeed="10"/>
    <vehicle id="W_N_86" type="car" route="W_N" depart="194" departLane="random" departSpeed="10"/>
    <vehicle id="S_E_87" type="car" route="S_E" depart="194" departLane="random" departSpeed="10"/>
    <vehicle id="E_S_88" type="car" route="E_S" depart="196" departLane="random" departSpeed="10"/>
    <vehicle id="S_N_89" type="car" route="S_N" depart="197" departLane="random" departSpeed="10"/>
    <vehicle id="W_E_90" type="car" route="W_E" depart="199" departLane="random" departSpeed="10"/>
    <vehicle id="N_E_91" type="car" route="N_E" depart="202" departLane="random" departSpeed="10"/>
    <vehicle id="E_S_92" type="car" route="E_S" depart="205" departLane="random" departSpeed="10"/>
    <vehicle id="S_N_93" type="car" route="S_N" depart="209" departLane="random" departSpeed="10"/>
    <vehicle id="E_S_94" type="car" route="E_S" depart="212" departLane="random" departSpeed="10"/>
    <vehicle id="W_E_95" type="car" route="W_E" depart="213" departLane="random" departSpeed="10"/>
    <vehicle id="E_N_96" type="car" route="E_N" depart="215" departLane="random" departSpeed="10"/>
    <vehicle id="W_N_97" type="car" route="W_N" depart="216" departLane="random" departSpeed="10"/>
    <vehicle id="E_W_98" type="car" route="E_W" depart="216" departLane="random" departSpeed="10"/>
    <vehicle id="W_N_99" type="car" route="W_N" depart="216" departLane="random" departSpeed="10"/>
    <vehicle id="W_E_100" type="car" route="W_E" depart="217" departLane="random" departSpeed="10"/>
    <vehicle id="N_W_101" type="car" route="N_W" depart="218" departLane="random" departSpeed="10"/>
    <vehicle id="E_S_102" type="car" route="E_S" depart="219" departLane="random" departSpeed="10"/>
    <vehicle id="N_S_103" type="car" route="N_S" depart="220" departLane="random" departSpeed="10"/>
    <vehicle id="W_E_104" type="car" route="W_E" depart="220" departLane="random" departSpeed="10"/>
    <vehicle id="N_S_105" type="car" route="N_S" depart="221" departLane="random" departSpeed="10"/>
    <vehicle id="W_E_106" type="car" route="W_E" depart="226" departLane="random" departSpeed="10"/>
    <vehicle id="W_N_107" type="car" route="W_N" depart="226" departLane="random" departSpeed="10"/>
    <vehicle id="E_W_108" type="car" route="E_W" depart="228" departLane="random" departSpeed="10"/>
    <vehicle id="S_E_109" type="car" route="S_E" depart="230" departLane="random" departSpeed="10"/>
    <vehicle id="E_S_110" type="car" route="E_S" depart="233" departLane="random" departSpeed="10"/>
    <vehicle id="S_W_111" type="car" route="S_W" depart="234" departLane="random" departSpeed="10"/>
    <vehicle id="S_N_112" type="car" route="S_N" depart="236" departLane="random" departSpeed="10"/>
    <vehicle id="W_E_113" type="car" route="W_E" depart="236" departLane="random" departSpeed="10"/>
    <vehicle id="W_S_114" type="car" route="W_S" depart="236" departLane="random" departSpeed="10"/>
    <vehicle id="S_N_115" type="car" route="S_N" depart="237" departLane="random" departSpeed="10"/>
    <vehicle id="N_W_116" type="car" route="N_W" depart="238" departLane="random" departSpeed="10"/>
    <vehicle id="E_S_117" type="car" route="E_S" depart="240" departLane="random" departSpeed="10"/>
    <vehicle id="S_E_118" type="car" route="S_E" depart="241" departLane="random" departSpeed="10"/>
    <vehicle id="N_E_119" type="car" route="N_E" depart="241" departLane="random" departSpeed="10"/>
    <vehicle id="S_N_120" type="car" route="S_N" depart="242" departLane="random" departSpeed="10"/>
    <vehicle id="W_N_121" type="car" route="W_N" depart="242" departLane="random" departSpeed="10"/>
    <vehicle id="S_W_122" type="car" route="S_W" depart="242" departLane="random" departSpeed="10"/>
    <vehicle id="S_W_123" type="car" route="S_W" depart="243" departLane="random" departSpeed="10"/>
    <vehicle id="E_W_124" type="car" route="E_W" depart="243" departLane="random" departSpeed="10"/>
    <vehicle id="W_N_125" type="car" route="W_N" depart="243" departLane="random" departSpeed="10"/>
    <vehicle id="W_E_126" type="car" route="W_E" depart="244" departLane="random" departSpeed="10"/>
    <vehicle id="E_N_127" type="car" route="E_N" depart="244" departLane="random" departSpeed="10"/>
    <vehicle id="E_W_128" type="car" route="E_W" depart="244" departLane="random" departSpeed="10"/>
    <vehicle id="S_N_129" type="car" route="S_N" depart="245" departLane="random" departSpeed="10"/>
    <vehicle id="W_S_130" type="car" route="W_S" depart="246" departLane="random" departSpeed="10"/>
    <vehicle id="E_W_131" type="car" route="E_W" depart="246" departLane="random" departSpeed="10"/>
    <vehicle id="N_W_132" type="car" route="N_W" depart="247" departLane="random" departSpeed="10"/>
    <vehicle id="N_W_133" type="car" route="N_W" depart="249" departLane="random" departSpeed="10"/>
    <vehicle id="W_S_134" type="car" route="W_S" depart="249" departLane="random" departSpeed="10"/>
    <vehicle id="W_S_135" type="car" route="W_S" depart="251" departLane="random" departSpeed="10"/>
    <vehicle id="S_E_136" type="car" route="S_E" depart="252" departLane="random" departSpeed="10"/>
    <vehicle id="E_N_137" type="car" route="E_N" depart="256" departLane="random" departSpeed="10"/>
    <vehicle id="S_E_138" type="car" route="S_E" depart="256" departLane="random" departSpeed="10"/>
    <vehicle id="N_E_139" type="car" route="N_E" depart="256" departLane="random" departSpeed="10"/>
    <vehicle id="N_S_140" type="car" route="N_S" depart="257" departLane="random" departSpeed="10"/>
    <vehicle id="N_S_141" type="car" route="N_S" depart="263" departLane="random" departSpeed="10"/>
    <vehicle id="E_W_142" type="car" route="E_W" depart="264" departLane="random" departSpeed="10"/>
    <vehicle id="E_S_143" type="car" route="E_S" depart="266" departLane="random" departSpeed="10"/>
    <vehicle id="E_N_144" type="car" route="E_N" depart="266" departLane="random" departSpeed="10"/>
    <vehicle id="S_N_145" type="car" route="S_N" depart="266" departLane="random" departSpeed="10"/>
    <vehicle id="E_N_146" type="car" route="E_N" depart="267" departLane="random" departSpeed="10"/>
    <vehicle id="E_S_147" type="car" route="E_S" depart="268" departLane="random" departSpeed="10"/>
    <vehicle id="W_S_148" type="car" route="W_S" depart="271" departLane="random" departSpeed="10"/>
    <vehicle id="W_S_149" type="car" route="W_S" depart="272" departLane="random" departSpeed="10"/>
    <vehicle id="S_N_150" type="car" route="S_N" depart="272" departLane="random" departSpeed="10"/>
    <vehicle id="N_S_151" type="car" route="N_S" depart="272" departLane="random" departSpeed="10"/>
    <vehicle id="W_N_152" type="car" route="W_N" depart="272" departLane="random" departSpeed="10"/>
    <vehicle id="W_S_153" type="car" route="W_S" depart="273" departLane="random" departSpeed="10"/>
    <vehicle id="N_S_154" type="car" route="N_S" depart="273" departLane="random" departSpeed="10"/>
    <vehicle id="N_S_155" type="car" route="N_S" depart="274" departLane="random" departSpeed="10"/>
    <vehicle id="W_S_156" type="car" route="W_S" depart="277" departLane="random" departSpeed="10"/>
    <vehicle id="W_S_157" type="car" route="W_S" depart="278" departLane="random" departSpeed="10"/>
    <vehicle id="S_N_158" type="car" route="S_N" depart="278" departLane="random" departSpeed="10"/>
    <vehicle id="S_N_159" type="car" route="S_N" depart="279" departLane="random" departSpeed="10"/>
    <vehicle id="E_W_160" type="car" route="E_W" depart="279" departLane="random" departSpeed="10"/>
    <vehicle id="N_W_161" type="car" route="N_W" depart="280" departLane="random" departSpeed="10"/>
    <vehicle id="S_E_162" type="car" route="S_E" depart="282" departLane="random" departSpeed="10"/>
    <vehicle id="S_E_163" type="car" route="S_E" depart="283" departLane="random" departSpeed="10"/>
    <vehicle id="S_N_164" type="car" route="S_N" depart="283" departLane="random" departSpeed="10"/>
    <vehicle id="N_E_165" type="car" route="N_E" depart="283" departLane="random" departSpeed="10"/>
    <vehicle id="S_N_166" type="car" route="S_N" depart="283" departLane="random" departSpeed="10"/>
    <vehicle id="S_E_167" type="car" route="S_E" depart="283" departLane="random" departSpeed="10"/>
    <vehicle id="W_E_168" type="car" route="W_E" depart="284" departLane="random" departSpeed="10"/>
    <vehicle id="S_N_169" type="car" route="S_N" depart="285" departLane="random" departSpeed="10"/>
    <vehicle id="W_S_170" type="car" route="W_S" depart="286" departLane="random" departSpeed="10"/>
    <vehicle id="E_W_171" type="car" route="E_W" depart="286" departLane="random" departSpeed="10"/>
    <vehicle id="N_W_172" type="car" route="N_W" depart="288" departLane="random" departSpeed="10"/>
    <vehicle id="E_N_173" type="car" route="E_N" depart="289" departLane="random" departSpeed="10"/>
    <vehicle id="S_E_174" type="car" route="S_E" depart="289" departLane="random" departSpeed="10"/>
    <vehicle id="N_E_175" type="car" route="N_E" depart="290" departLane="random" departSpeed="10"/>
    <vehicle id="S_N_176" type="car" route="S_N" depart="291" departLane="random" departSpeed="10"/>
    <vehicle id="E_N_177" type="car" route="E_N" depart="291" departLane="random" departSpeed="10"/>
    <vehicle id="W_S_178" type="car" route="W_S" depart="292" departLane="random" departSpeed="10"/>
    <vehicle id="N_S_179" type="car" route="N_S" depart="292" departLane="random" departSpeed="10"/>
    <vehicle id="N_W_180" type="car" route="N_W" depart="293" departLane="random" departSpeed="10"/>
    <vehicle id="S_W_181" type="car" route="S_W" depart="293" departLane="random" departSpeed="10"/>
    <vehicle id="N_S_182" type="car" route="N_S" depart="294" departLane="random" departSpeed="10"/>
    <vehicle id="W_N_183" type="car" route="W_N" depart="295" departLane="random" departSpeed="10"/>
    <vehicle id="N_W_184" type="car" route="N_W" depart="295" departLane="random" departSpeed="10"/>
    <vehicle id="E_S_185" type="car" route="E_S" depart="296" departLane="random" departSpeed="10"/>
    <vehicle id="S_W_186" type="car" route="S_W" depart="296" departLane="random" departSpeed="10"/>
    <vehicle id="N_S_187" type="car" route="N_S" depart="296" departLane="random" departSpeed="10"/>
    <vehicle id="N_W_188" type="car" route="N_W" depart="297" departLane="random" departSpeed="10"/>
    <vehicle id="W_S_189" type="car" route="W_S" depart="297" departLane="random" departSpeed="10"/>
    <vehicle id="W_S_190" type="car" route="W_S" depart="297" departLane="random" departSpeed="10"/>
    <vehicle id="E_W_191" type="car" route="E_W" depart="298" departLane="random" departSpeed="10"/>
    <vehicle id="W_N_192" type="car" route="W_N" depart="299" departLane="random" departSpeed="10"/>
    <vehicle id="W_E_193" type="car" route="W_E" depart="299" departLane="random" departSpeed="10"/>
    <vehicle id="S_W_194" type="car" route="S_W" depart="301" departLane="random" departSpeed="10"/>
    <vehicle id="E_W_195" type="car" route="E_W" depart="301" departLane="random" departSpeed="10"/>
    <vehicle id="E_N_196" type="car" route="E_N" depart="302" departLane="random" departSpeed="10"/>
    <vehicle id="S_E_197" type="car" route="S_E" depart="303" departLane="random" departSpeed="10"/>
    <vehicle id="E_S_198" type="car" route="E_S" depart="304" departLane="random" departSpeed="10"/>
    <vehicle id="S_W_199" type="car" route="S_W" depart="306" departLane="random" departSpeed="10"/>
    <vehicle id="E_N_200" type="car" route="E_N" depart="308" departLane="random" departSpeed="10"/>
    <vehicle id="S_N_201" type="car" route="S_N" depart="308" departLane="random" departSpeed="10"/>
    <vehicle id="N_W_202" type="car" route="N_W" depart="309" departLane="random" departSpeed="10"/>
    <vehicle id="W_E_203" type="car" route="W_E" depart="309" departLane="random" departSpeed="10"/>
    <vehicle id="N_S_204" type="car" route="N_S" depart="311" departLane="random" departSpeed="10"/>
    <vehicle id="W_N_205" type="car" route="W_N" depart="312" departLane="random" departSpeed="10"/>
    <vehicle id="S_N_206" type="car" route="S_N" depart="312" departLane="random" departSpeed="10"/>
    <vehicle id="E_W_207" type="car" route="E_W" depart="312" departLane="random" departSpeed="10"/>
    <vehicle id="N_S_208" type="car" route="N_S" depart="312" departLane="random" departSpeed="10"/>
    <vehicle id="S_E_209" type="car" route="S_E" depart="313" departLane="random" departSpeed="10"/>
    <vehicle id="N_W_210" type="car" route="N_W" depart="316" departLane="random" departSpeed="10"/>
    <vehicle id="S_N_211" type="car" route="S_N" depart="321" departLane="random" departSpeed="10"/>
    <vehicle id="N_W_212" type="car" route="N_W" depart="324" departLane="random" departSpeed="10"/>
    <vehicle id="E_W_213" type="car" route="E_W" depart="324" departLane="random" departSpeed="10"/>
    <vehicle id="E_W_214" type="car" route="E_W" depart="324" departLane="random" departSpeed="10"/>
    <vehicle id="N_S_215" type="car" route="N_S" depart="325" departLane="random" departSpeed="10"/>
    <vehicle id="W_E_216" type="car" route="W_E" depart="326" departLane="random" departSpeed="10"/>
    <vehicle id="S_E_217" type="car" route="S_E" depart="327" departLane="random" departSpeed="10"/>
    <vehicle id="W_E_218" type="car" route="W_E" depart="328" departLane="random" departSpeed="10"/>
    <vehicle id="N_S_219" type="car" route="N_S" depart="328" departLane="random" departSpeed="10"/>
    <vehicle id="W_E_220" type="car" route="W_E" depart="328" departLane="random" departSpeed="10"/>
    <vehicle id="W_N_221" type="car" route="W_N" depart="329" departLane="random" departSpeed="10"/>
    <vehicle id="N_W_222" type="car" route="N_W" depart="329" departLane="random" departSpeed="10"/>
    <vehicle id="W_S_223" type="car" route="W_S" depart="329" departLane="random" departSpeed="10"/>
    <vehicle id="N_S_224" type="car" route="N_S" depart="331" departLane="random" departSpeed="10"/>
    <vehicle id="W_N_225" type="car" route="W_N" depart="333" departLane="random" departSpeed="10"/>
    <vehicle id="N_W_226" type="car" route="N_W" depart="335" departLane="random" departSpeed="10"/>
    <vehicle id="N_S_227" type="car" route="N_S" depart="336" departLane="random" departSpeed="10"/>
    <vehicle id="W_S_228" type="car" route="W_S" depart="338" departLane="random" departSpeed="10"/>
    <vehicle id="W_S_229" type="car" route="W_S" depart="340" departLane="random" departSpeed="10"/>
    <vehicle id="E_W_230" type="car" route="E_W" depart="340" departLane="random" departSpeed="10"/>
    <vehicle id="N_S_231" type="car" route="N_S" depart="341" departLane="random" departSpeed="10"/>
    <vehicle id="N_E_232" type="car" route="N_E" depart="342" departLane="random" departSpeed="10"/>
    <vehicle id="N_S_233" type="car" route="N_S" depart="342" departLane="random" departSpeed="10"/>
    <vehicle id="S_N_234" type="car" route="S_N" depart="346" departLane="random" departSpeed="10"/>
    <vehicle id="W_N_235" type="car" route="W_N" depart="347" departLane="random" departSpeed="10"/>
    <vehicle id="S_N_236" type="car" route="S_N" depart="349" departLane="random" departSpeed="10"/>
    <vehicle id="E_S_237" type="car" route="E_S" depart="351" departLane="random" departSpeed="10"/>
    <vehicle id="N_W_238" type="car" route="N_W" depart="352" departLane="random" departSpeed="10"/>
    <vehicle id="S_W_239" type="car" route="S_W" depart="353" departLane="random" departSpeed="10"/>
    <vehicle id="E_S_240" type="car" route="E_S" depart="354" departLane="random" departSpeed="10"/>
    <vehicle id="S_E_241" type="car" route="S_E" depart="355" departLane="random" departSpeed="10"/>
    <vehicle id="S_E_242" type="car" route="S_E" depart="356" departLane="random" departSpeed="10"/>
    <vehicle id="E_W_243" type="car" route="E_W" depart="356" departLane="random" departSpeed="10"/>
    <vehicle id="N_S_244" type="car" route="N_S" depart="356" departLane="random" departSpeed="10"/>
    <vehicle id="S_W_245" type="car" route="S_W" depart="356" departLane="random" departSpeed="10"/>
    <vehicle id="S_E_246" type="car" route="S_E" depart="357" departLane="random" departSpeed="10"/>
    <vehicle id="E_S_247" type="car" route="E_S" depart="357" departLane="random" departSpeed="10"/>
    <vehicle id="E_N_248" type="car" route="E_N" depart="357" departLane="random" departSpeed="10"/>
    <vehicle id="S_N_249" type="car" route="S_N" depart="357" departLane="random" departSpeed="10"/>
    <vehicle id="N_W_250" type="car" route="N_W" depart="359" departLane="random" departSpeed="10"/>
    <vehicle id="N_E_251" type="car" route="N_E" depart="359" departLane="random" departSpeed="10"/>
    <vehicle id="N_S_252" type="car" route="N_S" depart="360" departLane="random" departSpeed="10"/>
    <vehicle id="S_E_253" type="car" route="S_E" depart="360" departLane="random" departSpeed="10"/>
    <vehicle id="E_W_254" type="car" route="E_W" depart="360" departLane="random" departSpeed="10"/>
    <vehicle id="W_N_255" type="car" route="W_N" depart="362" departLane="random" departSpeed="10"/>
    <vehicle id="E_S_256" type="car" route="E_S" depart="363" departLane="random" departSpeed="10"/>
    <vehicle id="E_N_257" type="car" route="E_N" depart="364" departLane="random" departSpeed="10"/>
    <vehicle id="S_W_258" type="car" route="S_W" depart="365" departLane="random" departSpeed="10"/>
    <vehicle id="S_E_259" type="car" route="S_E" depart="367" departLane="random" departSpeed="10"/>
    <vehicle id="N_S_260" type="car" route="N_S" depart="368" departLane="random" departSpeed="10"/>
    <vehicle id="S_E_261" type="car" route="S_E" depart="370" departLane="random" departSpeed="10"/>
    <vehicle id="S_E_262" type="car" route="S_E" depart="371" departLane="random" departSpeed="10"/>
    <vehicle id="E_W_263" type="car" route="E_W" depart="377" departLane="random" departSpeed="10"/>
    <vehicle id="W_S_264" type="car" route="W_S" depart="378" departLane="random" departSpeed="10"/>
    <vehicle id="N_W_265" type="car" route="N_W" depart="378" departLane="random" departSpeed="10"/>
    <vehicle id="E_S_266" type="car" route="E_S" depart="379" departLane="random" departSpeed="10"/>
    <vehicle id="S_N_267" type="car" route="S_N" depart="381" departLane="random" departSpeed="10"/>
    <vehicle id="S_W_268" type="car" route="S_W" depart="382" departLane="random" departSpeed="10"/>
    <vehicle id="N_E_269" type="car" route="N_E" depart="383" departLane="random" departSpeed="10"/>
    <vehicle id="E_N_270" type="car" route="E_N" depart="383" departLane="random" departSpeed="10"/>
    <vehicle id="E_S_271" type="car" route="E_S" depart="384" departLane="random" departSpeed="10"/>
    <vehicle id="E_N_272" type="car" route="E_N" depart="385" departLane="random" departSpeed="10"/>
    <vehicle id="S_N_273" type="car" route="S_N" depart="387" departLane="random" departSpeed="10"/>
    <vehicle id="W_N_274" type="car" route="W_N" depart="389" departLane="random" departSpeed="10"/>
    <vehicle id="S_W_275" type="car" route="S_W" depart="390" departLane="random" departSpeed="10"/>
    <vehicle id="W_E_276" type="car" route="W_E" depart="393" departLane="random" departSpeed="10"/>
    <vehicle id="N_W_277" type="car" route="N_W" depart="394" departLane="random" departSpeed="10"/>
    <vehicle id="N_S_278" type="car" route="N_S" depart="398" departLane="random" departSpeed="10"/>
    <vehicle id="W_E_279" type="car" route="W_E" depart="398" departLane="random" departSpeed="10"/>
    <vehicle id="W_N_280" type="car" route="W_N" depart="401" departLane="random" departSpeed="10"/>
    <vehicle id="N_W_281" type="car" route="N_W" depart="401" departLane="random" departSpeed="10"/>
    <vehicle id="E_W_282" type="car" route="E_W" depart="404" departLane="random" departSpeed="10"/>
    <vehicle id="E_S_283" type="car" route="E_S" depart="405" departLane="random" departSpeed="10"/>
    <vehicle id="W_S_284" type="car" route="W_S" depart="405" departLane="random" departSpeed="10"/>
    <vehicle id="E_W_285" type="car" route="E_W" depart="406" departLane="random" departSpeed="10"/>
    <vehicle id="N_W_286" type="car" route="N_W" depart="406" departLane="random" departSpeed="10"/>
    <vehicle id="N_E_287" type="car" route="N_E" depart="408" departLane="random" departSpeed="10"/>
    <vehicle id="N_S_288" type="car" route="N_S" depart="409" departLane="random" departSpeed="10"/>