<routes>
  <vType id="car" accel="1.0" decel="4.5" length="5" minGap="2.5" maxSpeed="25"/>
  <route id="W_E" edges="W_in E_out"/>
  <route id="W_N" edges="W_in N_out"/>
  <route id="W_S" edges="W_in S_out"/>
  <route id="E_W" edges="E_in W_out"/>
  <route id="E_N" edges="E_in N_out"/>
  <route id="E_S" edges="E_in S_out"/>
  <route id="N_S" edges="N_in S_out"/>
  <route id="N_W" edges="N_in W_out"/>
  <route id="N_E" edges="N_in E_out"/>
  <route id="S_N" edges="S_in N_out"/>
  <route id="S_W" edges="S_in W_out"/>
  <route id="S_E" edges="S_in E_out"/>
  <vehicle id="veh0" type="car" route="N_S" depart="0" departLane="random"/>
  <vehicle id="veh1" type="car" route="E_N" depart="6" departLane="random"/>
  <vehicle id="veh2" type="car" route="S_N" depart="12" departLane="random"/>
  <vehicle id="veh3" type="car" route="N_S" depart="17" departLane="random"/>
  <vehicle id="veh4" type="car" route="W_S" depart="17" departLane="random"/>
  <vehicle id="veh5" type="car" route="W_S" depart="22" departLane="random"/>
  <vehicle id="veh6" type="car" route="W_N" depart="24" departLane="random"/>
  <vehicle id="veh7" type="car" route="E_N" depart="25" departLane="random"/>
  <vehicle id="veh8" type="car" route="N_E" depart="26" departLane="random"/>
  <vehicle id="veh9" type="car" route="S_E" depart="31" departLane="random"/>
  <vehicle id="veh10" type="car" route="N_E" depart="31" departLane="random"/>
  <vehicle id="veh11" type="car" route="N_E" depart="31" departLane="random"/>
  <vehicle id="veh12" type="car" route="W_E" depart="34" departLane="random"/>
  <vehicle id="veh13" type="car" route="S_N" depart="36" departLane="random"/>
  <vehicle id="veh14" type="car" route="S_E" depart="36" departLane="random"/>
  <vehicle id="veh15" type="car" route="W_N" depart="36" departLane="random"/>
  <vehicle id="veh16" type="car" route="S_N" depart="38" departLane="random"/>
  <vehicle id="veh17" type="car" route="E_W" depart="38" departLane="random"/>
  <vehicle id="veh18" type="car" route="S_W" depart="40" departLane="random"/>
  <vehicle id="veh19" type="car" route="E_S" depart="42" departLane="random"/>
  <vehicle id="veh20" type="car" route="S_N" depart="42" departLane="random"/>
  <vehicle id="veh21" type="car" route="E_N" depart="43" departLane="random"/>
  <vehicle id="veh22" type="car" route="E_S" depart="46" departLane="random"/>
  <vehicle id="veh23" type="car" route="W_E" depart="46" departLane="random"/>
  <vehicle id="veh24" type="car" route="N_S" depart="46" departLane="random"/>
  <vehicle id="veh25" type="car" route="N_E" depart="47" departLane="random"/>
  <vehicle id="veh26" type="car" route="E_S" depart="49" departLane="random"/>
  <vehicle id="veh27" type="car" route="E_W" depart="49" departLane="random"/>
  <vehicle id="veh28" type="car" route="N_S" depart="50" departLane="random"/>
  <vehicle id="veh29" type="car" route="E_N" depart="51" departLane="random"/>
  <vehicle id="veh30" type="car" route="W_S" depart="51" departLane="random"/>
  <vehicle id="veh31" type="car" route="N_W" depart="52" departLane="random"/>
  <vehicle id="veh32" type="car" route="N_E" depart="56" departLane="random"/>
  <vehicle id="veh33" type="car" route="E_S" depart="59" departLane="random"/>
  <vehicle id="veh34" type="car" route="W_E" depart="59" departLane="random"/>
  <vehicle id="veh35" type="car" route="W_N" depart="59" departLane="random"/>
  <vehicle id="veh36" type="car" route="S_E" depart="59" departLane="random"/>
  <vehicle id="veh37" type="car" route="S_E" depart="60" departLane="random"/>
  <vehicle id="veh38" type="car" route="N_E" depart="60" departLane="random"/>
  <vehicle id="veh39" type="car" route="W_N" depart="61" departLane="random"/>
  <vehicle id="veh40" type="car" route="W_E" depart="61" departLane="random"/>
  <vehicle id="veh41" type="car" route="N_W" depart="62" departLane="random"/>
  <vehicle id="veh42" type="car" route="W_N" depart="62" departLane="random"/>
  <vehicle id="veh43" type="car" route="N_E" depart="62" departLane="random"/>
  <vehicle id="veh44" type="car" route="S_W" depart="63" departLane="random"/>
  <vehicle id="veh45" type="car" route="N_E" depart="63" departLane="random"/>
  <vehicle id="veh46" type="car" route="N_E" depart="66" departLane="random"/>
  <vehicle id="veh47" type="car" route="S_N" depart="68" departLane="random"/>
  <vehicle id="veh48" type="car" route="E_N" depart="69" departLane="random"/>
  <vehicle id="veh49" type="car" route="W_S" depart="70" departLane="random"/>
  <vehicle id="veh50" type="car" route="W_E" depart="71" departLane="random"/>
  <vehicle id="veh51" type="car" route="E_S" depart="72" departLane="random"/>
  <vehicle id="veh52" type="car" route="S_E" depart="73" departLane="random"/>
  <vehicle id="veh53" type="car" route="N_S" depart="73" departLane="random"/>
  <vehicle id="veh54" type="car" route="W_N" depart="75" departLane="random"/>
  <vehicle id="veh55" type="car" route="S_W" depart="75" departLane="random"/>
  <vehicle id="veh56" type="car" route="W_N" depart="76" departLane="random"/>
  <vehicle id="veh57" type="car" route="N_W" depart="76" departLane="random"/>
  <vehicle id="veh58" type="car" route="S_N" depart="76" departLane="random"/>
  <vehicle id="veh59" type="car" route="S_W" depart="77" departLane="random"/>
  <vehicle id="veh60" type="car" route="E_S" depart="77" departLane="random"/>
  <vehicle id="veh61" type="car" route="N_W" depart="78" departLane="random"/>
  <vehicle id="veh62" type="car" route="W_E" depart="79" departLane="random"/>
  <vehicle id="veh63" type="car" route="S_E" depart="79" departLane="random"/>
  <vehicle id="veh64" type="car" route="N_W" depart="80" departLane="random"/>
  <vehicle id="veh65" type="car" route="W_S" depart="80" departLane="random"/>
  <vehicle id="veh66" type="car" route="S_N" depart="81" departLane="random"/>
  <vehicle id="veh67" type="car" route="W_N" depart="81" departLane="random"/>
  <vehicle id="veh68" type="car" route="N_W" depart="82" departLane="random"/>
  <vehicle id="veh69" type="car" route="N_S" depart="82" departLane="random"/>
  <vehicle id="veh70" type="car" route="W_E" depart="83" departLane="random"/>
  <vehicle id="veh71" type="car" route="E_S" depart="84" departLane="random"/>
  <vehicle id="veh72" type="car" route="E_S" depart="86" departLane="random"/>
  <vehicle id="veh73" type="car" route="S_N" depart="86" departLane="random"/>
  <vehicle id="veh74" type="car" route="S_N" depart="87" departLane="random"/>
  <vehicle id="veh75" type="car" route="W_S" depart="88" departLane="random"/>
  <vehicle id="veh76" type="car" route="W_N" depart="89" departLane="random"/>
  <vehicle id="veh77" type="car" route="N_W" depart="91" departLane="random"/>
  <vehicle id="veh78" type="car" route="N_W" depart="91" departLane="random"/>
  <vehicle id="veh79" type="car" route="E_S" depart="92" departLane="random"/>
  <vehicle id="veh80" type="car" route="N_S" depart="92" departLane="random"/>
  <vehicle id="veh81" type="car" route="W_N" depart="93" departLane="random"/>
  <vehicle id="veh82" type="car" route="E_N" depart="94" departLane="random"/>
  <vehicle id="veh83" type="car" route="S_W" depart="94" departLane="random"/>
  <vehicle id="veh84" type="car" route="N_S" depart="95" departLane="random"/>
  <vehicle id="veh85" type="car" route="S_W" depart="97" departLane="random"/>
  <vehicle id="veh86" type="car" route="E_W" depart="97" departLane="random"/>
  <vehicle id="veh87" type="car" route="W_S" depart="98" departLane="random"/>
  <vehicle id="veh88" type="car" route="N_W" depart="98" departLane="random"/>
  <vehicle id="veh89" type="car" route="E_W" depart="99" departLane="random"/>
  <vehicle id="veh90" type="car" route="S_W" depart="102" departLane="random"/>
  <vehicle id="veh91" type="car" route="E_W" depart="103" departLane="random"/>
  <vehicle id="veh92" type="car" route="N_W" depart="104" departLane="random"/>
  <vehicle id="veh93" type="car" route="S_E" depart="104" departLane="random"/>
  <vehicle id="veh94" type="car" route="N_S" depart="106" departLane="random"/>
  <vehicle id="veh95" type="car" route="W_E" depart="106" departLane="random"/>
  <vehicle id="veh96" type="car" route="W_S" depart="106" departLane="random"/>
  <vehicle id="veh97" type="car" route="N_E" depart="107" departLane="random"/>
  <vehicle id="veh98" type="car" route="W_S" depart="108" departLane="random"/>
  <vehicle id="veh99" type="car" route="W_E" depart="108" departLane="random"/>
  <vehicle id="veh100" type="car" route="S_E" depart="109" departLane="random"/>
  <vehicle id="veh101" type="car" route="E_W" depart="110" departLane="random"/>
  <vehicle id="veh102" type="car" route="N_E" depart="111" departLane="random"/>
  <vehicle id="veh103" type="car" route="E_W" depart="111" departLane="random"/>
  <vehicle id="veh104" type="car" route="N_E" depart="114" departLane="random"/>
  <vehicle id="veh105" type="car" route="N_W" depart="114" departLane="random"/>
  <vehicle id="veh106" type="car" route="W_E" depart="115" departLane="random"/>
  <vehicle id="veh107" type="car" route="W_N" depart="115" departLane="random"/>
  <vehicle id="veh108" type="car" route="S_N" depart="116" departLane="random"/>
  <vehicle id="veh109" type="car" route="W_E" depart="118" departLane="random"/>
  <vehicle id="veh110" type="car" route="S_E" depart="118" departLane="random"/>
  <vehicle id="veh111" type="car" route="S_W" depart="119" departLane="random"/>
  <vehicle id="veh112" type="car" route="W_N" depart="120" departLane="random"/>
  <vehicle id="veh113" type="car" route="E_N" depart="121" departLane="random"/>
  <vehicle id="veh114" type="car" route="E_W" depart="121" departLane="random"/>
  <vehicle id="veh115" type="car" route="N_S" depart="121" departLane="random"/>
  <vehicle id="veh116" type="car" route="S_N" depart="124" departLane="random"/>
  <vehicle id="veh117" type="car" route="N_S" depart="124" departLane="random"/>
  <vehicle id="veh118" type="car" route="N_E" depart="125" departLane="random"/>
  <vehicle id="veh119" type="car" route="W_S" depart="125" departLane="random"/>
  <vehicle id="veh120" type="car" route="S_W" depart="125" departLane="random"/>
  <vehicle id="veh121" type="car" route="N_W" depart="125" departLane="random"/>
  <vehicle id="veh122" type="car" route="S_W" depart="125" departLane="random"/>
  <vehicle id="veh123" type="car" route="E_N" depart="126" departLane="random"/>
  <vehicle id="veh124" type="car" route="W_E" depart="127" departLane="random"/>
  <vehicle id="veh125" type="car" route="E_N" depart="127" departLane="random"/>
  <vehicle id="veh126" type="car" route="N_E" depart="128" departLane="random"/>
  <vehicle id="veh127" type="car" route="W_E" depart="129" departLane="random"/>
  <vehicle id="veh128" type="car" route="N_W" depart="129" departLane="random"/>
  <vehicle id="veh129" type="car" route="S_W" depart="130" departLane="random"/>
  <vehicle id="veh130" type="car" route="N_S" depart="130" departLane="random"/>
  <vehicle id="veh131" type="car" route="S_W" depart="130" departLane="random"/>
  <vehicle id="veh132" type="car" route="E_N" depart="131" departLane="random"/>
  <vehicle id="veh133" type="car" route="E_S" depart="131" departLane="random"/>
  <vehicle id="veh134" type="car" route="S_E" depart="132" departLane="random"/>
  <vehicle id="veh135" type="car" route="S_N" depart="132" departLane="random"/>
  <vehicle id="veh136" type="car" route="W_E" depart="132" departLane="random"/>
  <vehicle id="veh137" type="car" route="S_N" depart="132" departLane="random"/>
  <vehicle id="veh138" type="car" route="S_N" depart="133" departLane="random"/>
  <vehicle id="veh139" type="car" route="N_E" depart="133" departLane="random"/>
  <vehicle id="veh140" type="car" route="S_E" depart="134" departLane="random"/>
  <vehicle id="veh141" type="car" route="N_E" depart="135" departLane="random"/>
  <vehicle id="veh142" type="car" route="E_N" depart="136" departLane="random"/>
  <vehicle id="veh143" type="car" route="W_S" depart="137" departLane="random"/>
  <vehicle id="veh144" type="car" route="W_N" depart="138" departLane="random"/>
  <vehicle id="veh145" type="car" route="W_E" depart="138" departLane="random"/>
  <vehicle id="veh146" type="car" route="N_E" depart="139" departLane="random"/>
  <vehicle id="veh147" type="car" route="S_E" depart="139" departLane="random"/>
  <vehicle id="veh148" type="car" route="N_S" depart="139" departLane="random"/>
  <vehicle id="veh149" type="car" route="W_E" depart="140" departLane="random"/>
  <vehicle id="veh150" type="car" route="W_E" depart="141" departLane="random"/>
  <vehicle id="veh151" type="car" route="E_W" depart="142" departLane="random"/>
  <vehicle id="veh152" type="car" route="S_N" depart="142" departLane="random"/>
  <vehicle id="veh153" type="car" route="S_W" depart="143" departLane="random"/>
  <vehicle id="veh154" type="car" route="N_S" depart="143" departLane="random"/>
  <vehicle id="veh155" type="car" route="N_W" depart="143" departLane="random"/>
  <vehicle id="veh156" type="car" route="W_E" depart="144" departLane="random"/>
  <vehicle id="veh157" type="car" route="W_S" depart="144" departLane="random"/>
  <vehicle id="veh158" type="car" route="E_W" depart="147" departLane="random"/>
  <vehicle id="veh159" type="car" route="W_E" depart="147" departLane="random"/>
  <vehicle id="veh160" type="car" route="E_N" depart="148" departLane="random"/>
  <vehicle id="veh161" type="car" route="N_S" depart="148" departLane="random"/>
  <vehicle id="veh162" type="car" route="E_N" depart="148" departLane="random"/>
  <vehicle id="veh163" type="car" route="N_W" depart="149" departLane="random"/>
  <vehicle id="veh164" type="car" route="W_E" depart="149" departLane="random"/>
  <vehicle id="veh165" type="car" route="W_S" depart="150" departLane="random"/>
  <vehicle id="veh166" type="car" route="S_N" depart="150" departLane="random"/>
  <vehicle id="veh167" type="car" route="W_E" depart="150" departLane="random"/>
  <vehicle id="veh168" type="car" route="N_S" depart="151" departLane="random"/>
  <vehicle id="veh169" type="car" route="W_E" depart="152" departLane="random"/>
  <vehicle id="veh170" type="car" route="S_E" depart="153" departLane="random"/>
  <vehicle id="veh171" type="car" route="S_W" depart="153" departLane="random"/>
  <vehicle id="veh172" type="car" route="W_E" depart="154" departLane="random"/>
  <vehicle id="veh173" type="car" route="W_E" depart="154" departLane="random"/>
  <vehicle id="veh174" type="car" route="N_S" depart="155" departLane="random"/>
  <vehicle id="veh175" type="car" route="S_E" depart="156" departLane="random"/>
  <vehicle id="veh176" type="car" route="W_E" depart="157" departLane="random"/>
  <vehicle id="veh177" type="car" route="W_E" depart="157" departLane="random"/>
  <vehicle id="veh178" type="car" route="E_S" depart="158" departLane="random"/>
  <vehicle id="veh179" type="car" route="S_E" depart="158" departLane="random"/>
  <vehicle id="veh180" type="car" route="E_N" depart="158" departLane="random"/>
  <vehicle id="veh181" type="car" route="E_S" depart="159" departLane="random"/>
  <vehicle id="veh182" type="car" route="S_N" depart="159" departLane="random"/>
  <vehicle id="veh183" type="car" route="S_E" depart="159" departLane="random"/>
  <vehicle id="veh184" type="car" route="S_E" depart="160" departLane="random"/>
  <vehicle id="veh185" type="car" route="N_E" depart="161" departLane="random"/>
  <vehicle id="veh186" type="car" route="N_S" depart="161" departLane="random"/>
  <vehicle id="veh187" type="car" route="E_N" depart="161" departLane="random"/>
  <vehicle id="veh188" type="car" route="W_S" depart="161" departLane="random"/>
  <vehicle id="veh189" type="car" route="N_W" depart="163" departLane="random"/>
  <vehicle id="veh190" type="car" route="N_W" depart="163" departLane="random"/>
  <vehicle id="veh191" type="car" route="E_N" depart="164" departLane="random"/>
  <vehicle id="veh192" type="car" route="N_S" depart="165" departLane="random"/>
  <vehicle id="veh193" type="car" route="E_N" depart="165" departLane="random"/>
  <vehicle id="veh194" type="car" route="W_E" depart="165" departLane="random"/>
  <vehicle id="veh195" type="car" route="W_S" depart="165" departLane="random"/>
  <vehicle id="veh196" type="car" route="E_W" depart="165" departLane="random"/>
  <vehicle id="veh197" type="car" route="W_S" depart="166" departLane="random"/>
  <vehicle id="veh198" type="car" route="S_W" depart="166" departLane="random"/>
  <vehicle id="veh199" type="car" route="W_S" depart="166" departLane="random"/>
  <vehicle id="veh200" type="car" route="E_S" depart="167" departLane="random"/>
  <vehicle id="veh201" type="car" route="E_W" depart="167" departLane="random"/>
  <vehicle id="veh202" type="car" route="W_S" depart="168" departLane="random"/>
  <vehicle id="veh203" type="car" route="W_E" depart="168" departLane="random"/>
  <vehicle id="veh204" type="car" route="E_S" depart="168" departLane="random"/>
  <vehicle id="veh205" type="car" route="E_W" depart="169" departLane="random"/>
  <vehicle id="veh206" type="car" route="W_N" depart="169" departLane="random"/>
  <vehicle id="veh207" type="car" route="S_W" depart="170" departLane="random"/>
  <vehicle id="veh208" type="car" route="S_E" depart="170" departLane="random"/>
  <vehicle id="veh209" type="car" route="N_S" depart="171" departLane="random"/>
  <vehicle id="veh210" type="car" route="N_W" depart="171" departLane="random"/>
  <vehicle id="veh211" type="car" route="E_N" depart="171" departLane="random"/>
  <vehicle id="veh212" type="car" route="W_S" depart="171" departLane="random"/>
  <vehicle id="veh213" type="car" route="W_S" depart="172" departLane="random"/>
  <vehicle id="veh214" type="car" route="N_E" depart="172" departLane="random"/>
  <vehicle id="veh215" type="car" route="S_N" depart="172" departLane="random"/>
  <vehicle id="veh216" type="car" route="N_E" depart="172" departLane="random"/>
  <vehicle id="veh217" type="car" route="W_E" depart="173" departLane="random"/>
  <vehicle id="veh218" type="car" route="S_E" depart="173" departLane="random"/>
  <vehicle id="veh219" type="car" route="W_S" depart="173" departLane="random"/>
  <vehicle id="veh220" type="car" route="W_N" depart="174" departLane="random"/>
  <vehicle id="veh221" type="car" route="W_S" depart="174" departLane="random"/>
  <vehicle id="veh222" type="car" route="S_N" depart="174" departLane="random"/>
  <vehicle id="veh223" type="car" route="N_S" depart="174" departLane="random"/>
  <vehicle id="veh224" type="car" route="E_N" depart="175" departLane="random"/>
  <vehicle id="veh225" type="car" route="S_N" depart="175" departLane="random"/>
  <vehicle id="veh226" type="car" route="S_E" depart="175" departLane="random"/>
  <vehicle id="veh227" type="car" route="S_E" depart="176" departLane="random"/>
  <vehicle id="veh228" type="car" route="N_E" depart="176" departLane="random"/>
  <vehicle id="veh229" type="car" route="S_W" depart="176" departLane="random"/>
  <vehicle id="veh230" type="car" route="W_N" depart="176" departLane="random"/>
  <vehicle id="veh231" type="car" route="N_E" depart="177" departLane="random"/>
  <vehicle id="veh232" type="car" route="S_W" depart="177" departLane="random"/>
  <vehicle id="veh233" type="car" route="E_S" depart="177" departLane="random"/>
  <vehicle id="veh234" type="car" route="N_W" depart="178" departLane="random"/>
  <vehicle id="veh235" type="car" route="N_E" depart="178" departLane="random"/>
  <vehicle id="veh236" type="car" route="W_E" depart="179" departLane="random"/>
  <vehicle id="veh237" type="car" route="N_W" depart="180" departLane="random"/>
  <vehicle id="veh238" type="car" route="E_N" depart="181" departLane="random"/>
  <vehicle id="veh239" type="car" route="E_W" depart="182" departLane="random"/>
  <vehicle id="veh240" type="car" route="E_N" depart="182" departLane="random"/>
  <vehicle id="veh241" type="car" route="W_E" depart="182" departLane="random"/>
  <vehicle id="veh242" type="car" route="N_E" depart="183" departLane="random"/>
  <vehicle id="veh243" type="car" route="E_W" depart="183" departLane="random"/>
  <vehicle id="veh244" type="car" route="W_S" depart="184" departLane="random"/>
  <vehicle id="veh245" type="car" route="E_W" depart="185" departLane="random"/>
  <vehicle id="veh246" type="car" route="W_N" depart="185" departLane="random"/>
  <vehicle id="veh247" type="car" route="W_E" depart="185" departLane="random"/>
  <vehicle id="veh248" type="car" route="E_S" depart="186" departLane="random"/>
  <vehicle id="veh249" type="car" route="N_E" depart="186" departLane="random"/>
  <vehicle id="veh250" type="car" route="W_N" depart="186" departLane="random"/>
  <vehicle id="veh251" type="car" route="E_S" depart="186" departLane="random"/>
  <vehicle id="veh252" type="car" route="W_S" depart="187" departLane="random"/>
  <vehicle id="veh253" type="car" route="S_E" depart="187" departLane="random"/>
  <vehicle id="veh254" type="car" route="N_W" depart="187" departLane="random"/>
  <vehicle id="veh255" type="car" route="S_E" depart="187" departLane="random"/>
  <vehicle id="veh256" type="car" route="E_W" depart="188" departLane="random"/>
  <vehicle id="veh257" type="car" route="W_E" depart="188" departLane="random"/>
  <vehicle id="veh258" type="car" route="S_E" depart="188" departLane="random"/>
  <vehicle id="veh259" type="car" route="E_N" depart="188" departLane="random"/>
  <vehicle id="veh260" type="car" route="N_S" depart="189" departLane="random"/>
  <vehicle id="veh261" type="car" route="E_S" depart="189" departLane="random"/>
  <vehicle id="veh262" type="car" route="W_E" depart="189" departLane="random"/>
  <vehicle id="veh263" type="car" route="N_S" depart="190" departLane="random"/>
  <vehicle id="veh264" type="car" route="E_N" depart="191" departLane="random"/>
  <vehicle id="veh265" type="car" route="W_S" depart="191" departLane="random"/>
  <vehicle id="veh266" type="car" route="E_N" depart="192" departLane="random"/>
  <vehicle id="veh267" type="car" route="W_N" depart="192" departLane="random"/>
  <vehicle id="veh268" type="car" route="E_N" depart="193" departLane="random"/>
  <vehicle id="veh269" type="car" route="W_N" depart="193" departLane="random"/>
  <vehicle id="veh270" type="car" route="W_E" depart="193" departLane="random"/>
  <vehicle id="veh271" type="car" route="N_S" depart="193" departLane="random"/>
  <vehicle id="veh272" type="car" route="W_S" depart="193" departLane="random"/>
  <vehicle id="veh273" type="car" route="N_W" depart="194" departLane="random"/>
  <vehicle id="veh274" type="car" route="N_S" depart="194" departLane="random"/>
  <vehicle id="veh275" type="car" route="S_N" depart="194" departLane="random"/>
  <vehicle id="veh276" type="car" route="E_N" depart="194" departLane="random"/>
  <vehicle id="veh277" type="car" route="E_S" depart="195" departLane="random"/>
  <vehicle id="veh278" type="car" route="N_E" depart="195" departLane="random"/>
  <vehicle id="veh279" type="car" route="S_E" depart="196" departLane="random"/>
  <vehicle id="veh280" type="car" route="W_E" depart="196" departLane="random"/>
  <vehicle id="veh281" type="car" route="W_S" depart="197" departLane="random"/>
  <vehicle id="veh282" type="car" route="S_W" depart="197" departLane="random"/>
  <vehicle id="veh283" type="car" route="S_E" depart="198" departLane="random"/>
  <vehicle id="veh284" type="car" route="N_E" depart="198" departLane="random"/>
  <vehicle id="veh285" type="car" route="N_E" depart="199" departLane="random"/>
  <vehicle id="veh286" type="car" route="S_W" depart="199" departLane="random"/>
  <vehicle id="veh287" type="car" route="W_S" depart="199" departLane="random"/>
  <vehicle id="veh288" type="car" route="E_S" depart="199" departLane="random"/>
  <vehicle id="veh289" type="car" route="W_S" depart="199" departLane="random"/>
  <vehicle id="veh290" type="car" route="N_S" depart="200" departLane="random"/>
  <vehicle id="veh291" type="car" route="S_W" depart="200" departLane="random"/>
  <vehicle id="veh292" type="car" route="W_E" depart="201" departLane="random"/>
  <vehicle id="veh293" type="car" route="N_S" depart="201" departLane="random"/>
  <vehicle id="veh294" type="car" route="W_N" depart="201" departLane="random"/>
  <vehicle id="veh295" type="car" route="S_N" depart="201" departLane="random"/>
  <vehicle id="veh296" type="car" route="E_N" depart="202" departLane="random"/>
  <vehicle id="veh297" type="car" route="S_E" depart="202" departLane="random"/>
  <vehicle id="veh298" type="car" route="W_S" depart="202" departLane="random"/>
  <vehicle id="veh299" type="car" route="W_S" depart="202" departLane="random"/>
  <vehicle id="veh300" type="car" route="N_W" depart="203" departLane="random"/>
  <vehicle id="veh301" type="car" route="N_W" depart="205" departLane="random"/>
  <vehicle id="veh302" type="car" route="E_N" depart="205" departLane="random"/>
  <vehicle id="veh303" type="car" route="S_W" depart="205" departLane="random"/>
  <vehicle id="veh304" type="car" route="W_E" depart="206" departLane="random"/>
  <vehicle id="veh305" type="car" route="W_E" depart="207" departLane="random"/>
  <vehicle id="veh306" type="car" route="W_N" depart="208" departLane="random"/>
  <vehicle id="veh307" type="car" route="S_W" depart="208" departLane="random"/>
  <vehicle id="veh308" type="car" route="N_S" depart="208" departLane="random"/>
  <vehicle id="veh309" type="car" route="E_N" depart="208" departLane="random"/>
  <vehicle id="veh310" type="car" route="S_N" depart="209" departLane="random"/>
  <vehicle id="veh311" type="car" route="S_E" depart="209" departLane="random"/>
  <vehicle id="veh312" type="car" route="S_E" depart="209" departLane="random"/>
  <vehicle id="veh313" type="car" route="N_E" depart="209" departLane="random"/>
  <vehicle id="veh314" type="car" route="N_W" depart="209" departLane="random"/>
  <vehicle id="veh315" type="car" route="S_N" depart="210" departLane="random"/>
  <vehicle id="veh316" type="car" route="S_N" depart="210" departLane="random"/>
  <vehicle id="veh317" type="car" route="N_S" depart="210" departLane="random"/>
  <vehicle id="veh318" type="car" route="N_S" depart="212" departLane="random"/>
  <vehicle id="veh319" type="car" route="W_N" depart="213" departLane="random"/>
  <vehicle id="veh320" type="car" route="N_S" depart="213" departLane="random"/>
  <vehicle id="veh321" type="car" route="W_E" depart="214" departLane="random"/>
  <vehicle id="veh322" type="car" route="S_E" depart="214" departLane="random"/>
  <vehicle id="veh323" type="car" route="S_N" depart="214" departLane="random"/>
  <vehicle id="veh324" type="car" route="N_S" depart="215" departLane="random"/>
  <vehicle id="veh325" type="car" route="N_S" depart="215" departLane="random"/>
  <vehicle id="veh326" type="car" route="N_E" depart="215" departLane="random"/>
  <vehicle id="veh327" type="car" route="E_W" depart="215" departLane="random"/>
  <vehicle id="veh328" type="car" route="N_S" depart="217" departLane="random"/>
  <vehicle id="veh329" type="car" route="E_N" depart="217" departLane="random"/>
  <vehicle id="veh330" type="car" route="N_E" depart="218" departLane="random"/>
  <vehicle id="veh331" type="car" route="N_E" depart="218" departLane="random"/>
  <vehicle id="veh332" type="car" route="W_N" depart="218" departLane="random"/>
  <vehicle id="veh333" type="car" route="W_S" depart="218" departLane="random"/>
  <vehicle id="veh334" type="car" route="S_W" depart="219" departLane="random"/>
  <vehicle id="veh335" type="car" route="S_N" depart="220" departLane="random"/>
  <vehicle id="veh336" type="car" route="S_W" depart="220" departLane="random"/>
  <vehicle id="veh337" type="car" route="E_S" depart="220" departLane="random"/>
  <vehicle id="veh338" type="car" route="E_W" depart="220" departLane="random"/>
  <vehicle id="veh339" type="car" route="W_N" depart="220" departLane="random"/>
  <vehicle id="veh340" type="car" route="S_E" depart="221" departLane="random"/>
  <vehicle id="veh341" type="car" route="N_E" depart="221" departLane="random"/>
  <vehicle id="veh342" type="car" route="S_N" depart="222" departLane="random"/>
  <vehicle id="veh343" type="car" route="E_W" depart="222" departLane="random"/>
  <vehicle id="veh344" type="car" route="E_S" depart="222" departLane="random"/>
  <vehicle id="veh345" type="car" route="W_N" depart="222" departLane="random"/>
  <vehicle id="veh346" type="car" route="S_E" depart="222" departLane="random"/>
  <vehicle id="veh347" type="car" route="S_E" depart="223" departLane="random"/>
  <vehicle id="veh348" type="car" route="S_E" depart="224" departLane="random"/>
  <vehicle id="veh349" type="car" route="E_S" depart="225" departLane="random"/>
  <vehicle id="veh350" type="car" route="E_S" depart="226" departLane="random"/>
  <vehicle id="veh351" type="car" route="E_S" depart="226" departLane="random"/>
  <vehicle id="veh352" type="car" route="N_W" depart="227" departLane="random"/>
  <vehicle id="veh353" type="car" route="W_E" depart="228" departLane="random"/>
  <vehicle id="veh354" type="car" route="E_W" depart="229" departLane="random"/>
  <vehicle id="veh355" type="car" route="N_S" depart="230" departLane="random"/>
  <vehicle id="veh356" type="car" route="S_E" depart="231" departLane="random"/>
  <vehicle id="veh357" type="car" route="W_E" depart="231" departLane="random"/>
  <vehicle id="veh358" type="car" route="E_N" depart="234" departLane="random"/>
  <vehicle id="veh359" type="car" route="N_W" depart="234" departLane="random"/>
  <vehicle id="veh360" type="car" route="N_W" depart="235" departLane="random"/>