<routes>
    <vType id="car" accel="1.0" decel="4.5" length="5.0" minGap="2.5" maxSpeed="25.0" sigma="0.5" color="1,0,0"/>
    <route id="W_E" edges="W_in E_out"/>
    <route id="W_N" edges="W_in N_out"/>
    <route id="W_S" edges="W_in S_out"/>
    <route id="E_W" edges="E_in W_out"/>
    <route id="E_N" edges="E_in N_out"/>
    <route id="E_S" edges="E_in S_out"/>
    <route id="N_S" edges="N_in S_out"/>
    <route id="N_W" edges="N_in W_out"/>
    <route id="N_E" edges="N_in E_out"/>
    <route id="S_N" edges="S_in N_out"/>
    <route id="S_W" edges="S_in W_out"/>
    <route id="S_E" edges="S_in E_out"/>
    <vehicle id="W_N_0" type="car" route="W_N" depart="0" departLane="random" departSpeed="10"/>
    <vehicle id="W_S_1" type="car" route="W_S" depart="6" departLane="random" departSpeed="10"/>
    <vehicle id="N_W_2" type="car" route="N_W" depart="7" departLane="random" departSpeed="10"/>
    <vehicle id="N_S_3" type="car" route="N_S" depart="12" departLane="random" departSpeed="10"/>
    <vehicle id="W_E_4" type="car" route="W_E" depart="27" departLane="random" departSpeed="10"/>
    <vehicle id="S_E_5" type="car" route="S_E" depart="29" departLane="random" departSpeed="10"/>
    <vehicle id="S_N_6" type="car" route="S_N" depart="33" departLane="random" departSpeed="10"/>
    <vehicle id="S_W_7" type="car" route="S_W" depart="41" departLane="random" departSpeed="10"/>
    <vehicle id="E_S_8" type="car" route="E_S" depart="46" departLane="random" departSpeed="10"/>
    <vehicle id="S_W_9" type="car" route="S_W" depart="47" departLane="random" departSpeed="10"/>
    <vehicle id="E_W_10" type="car" route="E_W" depart="47" departLane="random" departSpeed="10"/>
    <vehicle id="N_W_11" type="car" route="N_W" depart="48" departLane="random" departSpeed="10"/>
    <vehicle id="N_W_12" type="car" route="N_W" depart="57" departLane="random" departSpeed="10"/>
    <vehicle id="S_E_13" type="car" route="S_E" depart="61" departLane="random" departSpeed="10"/>
    <vehicle id="N_W_14" type="car" route="N_W" depart="62" departLane="random" departSpeed="10"/>
    <vehicle id="E_N_15" type="car" route="E_N" depart="64" departLane="random" departSpeed="10"/>
    <vehicle id="S_E_16" type="car" route="S_E" depart="69" departLane="random" departSpeed="10"/>
    <vehicle id="E_W_17" type="car" route="E_W" depart="70" departLane="random" departSpeed="10"/>
    <vehicle id="N_E_18" type="car" route="N_E" depart="70" departLane="random" departSpeed="10"/>
    <vehicle id="W_E_19" type="car" route="W_E" depart="71" departLane="random" departSpeed="10"/>
    <vehicle id="W_E_20" type="car" route="W_E" depart="72" departLane="random" departSpeed="10"/>
    <vehicle id="N_W_21" type="car" route="N_W" depart="72" departLane="random" departSpeed="10"/>
    <vehicle id="E_W_22" type="car" route="E_W" depart="73" departLane="random" departSpeed="10"/>
    <vehicle id="W_E_23" type="car" route="W_E" depart="77" departLane="random" departSpeed="10"/>
    <vehicle id="W_E_24" type="car" route="W_E" depart="78" departLane="random" departSpeed="10"/>
    <vehicle id="N_S_25" type="car" route="N_S" depart="82" departLane="random" departSpeed="10"/>
    <vehicle id="N_W_26" type="car" route="N_W" depart="84" departLane="random" departSpeed="10"/>
    <vehicle id="S_N_27" type="car" route="S_N" depart="87" departLane="random" departSpeed="10"/>
    <vehicle id="E_N_28" type="car" route="E_N" depart="89" departLane="random" departSpeed="10"/>
    <vehicle id="N_E_29" type="car" route="N_E" depart="89" departLane="random" departSpeed="10"/>
    <vehicle id="S_N_30" type="car" route="S_N" depart="90" departLane="random" departSpeed="10"/>
    <vehicle id="W_E_31" type="car" route="W_E" depart="93" departLane="random" departSpeed="10"/>
    <vehicle id="W_S_32" type="car" route="W_S" depart="94" departLane="random" departSpeed="10"/>
    <vehicle id="N_S_33" type="car" route="N_S" depart="94" departLane="random" departSpeed="10"/>
    <vehicle id="S_W_34" type="car" route="S_W" depart="94" departLane="random" departSpeed="10"/>
    <vehicle id="S_W_35" type="car" route="S_W" depart="98" departLane="random" departSpeed="10"/>
    <vehicle id="W_S_36" type="car" route="W_S" depart="99" departLane="random" departSpeed="10"/>
    <vehicle id="E_S_37" type="car" route="E_S" depart="102" departLane="random" departSpeed="10"/>
    <vehicle id="W_E_38" type="car" route="W_E" depart="106" departLane="random" departSpeed="10"/>
    <vehicle id="S_N_39" type="car" route="S_N" depart="108" departLane="random" departSpeed="10"/>
    <vehicle id="S_W_40" type="car" route="S_W" depart="109" departLane="random" departSpeed="10"/>
    <vehicle id="W_N_41" type="car" route="W_N" depart="111" departLane="random" departSpeed="10"/>
    <vehicle id="W_S_42" type="car" route="W_S" depart="112" departLane="random" departSpeed="10"/>
    <vehicle id="N_W_43" type="car" route="N_W" depart="112" departLane="random" departSpeed="10"/>
    <vehicle id="S_N_44" type="car" route="S_N" depart="116" departLane="random" departSpeed="10"/>
    <vehicle id="E_S_45" type="car" route="E_S" depart="118" departLane="random" departSpeed="10"/>
    <vehicle id="E_N_46" type="car" route="E_N" depart="119" departLane="random" departSpeed="10"/>
    <vehicle id="E_W_47" type="car" route="E_W" depart="119" departLane="random" departSpeed="10"/>
    <vehicle id="W_E_48" type="car" route="W_E" depart="126" departLane="random" departSpeed="10"/>
    <vehicle id="S_W_49" type="car" route="S_W" depart="127" departLane="random" departSpeed="10"/>
    <vehicle id="W_S_50" type="car" route="W_S" depart="129" departLane="random" departSpeed="10"/>
    <vehicle id="S_N_51" type="car" route="S_N" depart="131" departLane="random" departSpeed="10"/>
    <vehicle id="W_S_52" type="car" route="W_S" depart="131" departLane="random" departSpeed="10"/>
    <vehicle id="N_S_53" type="car" route="N_S" depart="133" departLane="random" departSpeed="10"/>
    <vehicle id="N_W_54" type="car" route="N_W" depart="134" departLane="random" departSpeed="10"/>
    <vehicle id="S_E_55" type="car" route="S_E" depart="135" departLane="random" departSpeed="10"/>
    <vehicle id="W_N_56" type="car" route="W_N" depart="137" departLane="random" departSpeed="10"/>
    <vehicle id="S_N_57" type="car" route="S_N" depart="138" departLane="random" departSpeed="10"/>
    <vehicle id="W_E_58" type="car" route="W_E" depart="138" departLane="random" departSpeed="10"/>
    <vehicle id="E_N_59" type="car" route="E_N" depart="142" departLane="random" departSpeed="10"/>
    <vehicle id="W_S_60" type="car" route="W_S" depart="144" departLane="random" departSpeed="10"/>
    <vehicle id="E_W_61" type="car" route="E_W" depart="146" departLane="random" departSpeed="10"/>
    <vehicle id="N_E_62" type="car" route="N_E" depart="147" departLane="random" departSpeed="10"/>
    <vehicle id="N_W_63" type="car" route="N_W" depart="149" departLane="random" departSpeed="10"/>
    <vehicle id="W_E_64" type="car" route="W_E" depart="151" departLane="random" departSpeed="10"/>
    <vehicle id="N_W_65" type="car" route="N_W" depart="152" departLane="random" departSpeed="10"/>
    <vehicle id="W_S_66" type="car" route="W_S" depart="154" departLane="random" departSpeed="10"/>
    <vehicle id="S_N_67" type="car" route="S_N" depart="155" departLane="random" departSpeed="10"/>
    <vehicle id="E_N_68" type="car" route="E_N" depart="156" departLane="random" departSpeed="10"/>
    <vehicle id="E_S_69" type="car" route="E_S" depart="157" departLane="random" departSpeed="10"/>
    <vehicle id="W_S_70" type="car" route="W_S" depart="158" departLane="random" departSpeed="10"/>
    <vehicle id="S_W_71" type="car" route="S_W" depart="160" departLane="random" departSpeed="10"/>
    <vehicle id="W_N_72" type="car" route="W_N" depart="160" departLane="random" departSpeed="10"/>
    <vehicle id="S_N_73" type="car" route="S_N" depart="160" departLane="random" departSpeed="10"/>
    <vehicle id="W_E_74" type="car" route="W_E" depart="162" departLane="random" departSpeed="10"/>
    <vehicle id="S_N_75" type="car" route="S_N" depart="162" departLane="random" departSpeed="10"/>
    <vehicle id="S_W_76" type="car" route="S_W" depart="166" departLane="random" departSpeed="10"/>
    <vehicle id="W_E_77" type="car" route="W_E" depart="168" departLane="random" departSpeed="10"/>
    <vehicle id="N_W_78" type="car" route="N_W" depart="170" departLane="random" departSpeed="10"/>
    <vehicle id="N_E_79" type="car" route="N_E" depart="171" departLane="random" departSpeed="10"/>
    <vehicle id="S_N_80" type="car" route="S_N" depart="174" departLane="random" departSpeed="10"/>
    <vehicle id="N_W_81" type="car" route="N_W" depart="174" departLane="random" departSpeed="10"/>
    <vehicle id="E_N_82" type="car" route="E_N" depart="176" departLane="random" departSpeed="10"/>
    <vehicle id="E_W_83" type="car" route="E_W" depart="176" departLane="random" departSpeed="10"/>
    <vehicle id="S_E_84" type="car" route="S_E" depart="178" departLane="random" departSpeed="10"/>
    <vehicle id="W_S_85" type="car" route="W_S" depart="182" departLane="random" departSpeed="10"/>
    <vehicle id="N_S_86" type="car" route="N_S" depart="183" departLane="random" departSpeed="10"/>
    <vehicle id="E_W_87" type="car" route="E_W" depart="183" departLane="random" departSpeed="10"/>
    <vehicle id="S_W_88" type="car" route="S_W" depart="187" departLane="random" departSpeed="10"/>
    <vehicle id="N_S_89" type="car" route="N_S" depart="192" departLane="random" departSpeed="10"/>
    <vehicle id="W_E_90" type="car" route="W_E" depart="192" departLane="random" departSpeed="10"/>
    <vehicle id="E_N_91" type="car" route="E_N" depart="194" departLane="random" departSpeed="10"/>
    <vehicle id="S_E_92" type="car" route="S_E" depart="197" departLane="random" departSpeed="10"/>
    <vehicle id="N_W_93" type="car" route="N_W" depart="198" departLane="random" departSpeed="10"/>
    <vehicle id="W_S_94" type="car" route="W_S" depart="199" departLane="random" departSpeed="10"/>
    <vehicle id="S_E_95" type="car" route="S_E" depart="200" departLane="random" departSpeed="10"/>
    <vehicle id="S_W_96" type="car" route="S_W" depart="200" departLane="random" departSpeed="10"/>
    <vehicle id="E_W_97" type="car" route="E_W" depart="201" departLane="random" departSpeed="10"/>
    <vehicle id="S_W_98" type="car" route="S_W" depart="204" departLane="random" departSpeed="10"/>
    <vehicle id="S_N_99" type="car" route="S_N" depart="205" departLane="random" departSpeed="10"/>
    <vehicle id="S_E_100" type="car" route="S_E" depart="207" departLane="random" departSpeed="10"/>
    <vehicle id="W_E_101" type="car" route="W_E" depart="211" departLane="random" departSpeed="10"/>
    <vehicle id="N_S_102" type="car" route="N_S" depart="211" departLane="random" departSpeed="10"/>
    <vehicle id="E_S_103" type="car" route="E_S" depart="215" departLane="random" departSpeed="10"/>
    <vehicle id="E_W_104" type="car" route="E_W" depart="216" departLane="random" departSpeed="10"/>
    <vehicle id="N_S_105" type="car" route="N_S" depart="217" departLane="random" departSpeed="10"/>
    <vehicle id="W_E_106" type="car" route="W_E" depart="218" departLane="random" departSpeed="10"/>
    <vehicle id="E_S_107" type="car" route="E_S" depart="220" departLane="random" departSpeed="10"/>
    <vehicle id="S_N_108" type="car" route="S_N" depart="220" departLane="random" departSpeed="10"/>
    <vehicle id="W_S_109" type="car" route="W_S" depart="221" departLane="random" departSpeed="10"/>
    <vehicle id="N_E_110" type="car" route="N_E" depart="221" departLane="random" departSpeed="10"/>
    <vehicle id="N_S_111" type="car" route="N_S" depart="224" departLane="random" departSpeed="10"/>
    <vehicle id="E_N_112" type="car" route="E_N" depart="226" departLane="random" departSpeed="10"/>
    <vehicle id="N_E_113" type="car" route="N_E" depart="229" departLane="random" departSpeed="10"/>
    <vehicle id="E_S_114" type="car" route="E_S" depart="229" departLane="random" departSpeed="10"/>
    <vehicle id="E_N_115" type="car" route="E_N" depart="229" departLane="random" departSpeed="10"/>
    <vehicle id="W_E_116" type="car" route="W_E" depart="229" departLane="random" departSpeed="10"/>
    <vehicle id="S_E_117" type="car" route="S_E" depart="230" departLane="random" departSpeed="10"/>
    <vehicle id="S_N_118" type="car" route="S_N" depart="231" departLane="random" departSpeed="10"/>
    <vehicle id="N_E_119" type="car" route="N_E" depart="232" departLane="random" departSpeed="10"/>
    <vehicle id="S_W_120" type="car" route="S_W" depart="232" departLane="random" departSpeed="10"/>
    <vehicle id="N_E_121" type="car" route="N_E" depart="234" departLane="random" departSpeed="10"/>
    <vehicle id="N_E_122" type="car" route="N_E" depart="234" departLane="random" departSpeed="10"/>
    <vehicle id="S_W_123" type="car" route="S_W" depart="235" departLane="random" departSpeed="10"/>
    <vehicle id="E_N_124" type="car" route="E_N" depart="239" departLane="random" departSpeed="10"/>
    <vehicle id="N_S_125" type="car" route="N_S" depart="240" departLane="random" departSpeed="10"/>
    <vehicle id="N_S_126" type="car" route="N_S" depart="243" departLane="random" departSpeed="10"/>
    <vehicle id="W_E_127" type="car" route="W_E" depart="244" departLane="random" departSpeed="10"/>
    <vehicle id="E_W_128" type="car" route="E_W" depart="245" departLane="random" departSpeed="10"/>
    <vehicle id="E_W_129" type="car" route="E_W" depart="247" departLane="random" departSpeed="10"/>
    <vehicle id="S_W_130" type="car" route="S_W" depart="247" departLane="random" departSpeed="10"/>
    <vehicle id="S_E_131" type="car" route="S_E" depart="250" departLane="random" departSpeed="10"/>
    <vehicle id="N_E_132" type="car" route="N_E" depart="250" departLane="random" departSpeed="10"/>
    <vehicle id="E_W_133" type="car" route="E_W" depart="250" departLane="random" departSpeed="10"/>
    <vehicle id="E_W_134" type="car" route="E_W" depart="254" departLane="random" departSpeed="10"/>
    <vehicle id="N_E_135" type="car" route="N_E" depart="254" departLane="random" departSpeed="10"/>
    <vehicle id="S_W_136" type="car" route="S_W" depart="256" departLane="random" departSpeed="10"/>
    <vehicle id="E_S_137" type="car" route="E_S" depart="257" departLane="random" departSpeed="10"/>
    <vehicle id="W_N_138" type="car" route="W_N" depart="260" departLane="random" departSpeed="10"/>
    <vehicle id="W_S_139" type="car" route="W_S" depart="261" departLane="random" departSpeed="10"/>
    <vehicle id="S_N_140" type="car" route="S_N" depart="261" departLane="random" departSpeed="10"/>
    <vehicle id="E_S_141" type="car" route="E_S" depart="261" departLane="random" departSpeed="10"/>
    <vehicle id="W_E_142" type="car" route="W_E" depart="262" departLane="random" departSpeed="10"/>
    <vehicle id="W_S_143" type="car" route="W_S" depart="263" departLane="random" departSpeed="10"/>
    <vehicle id="N_S_144" type="car" route="N_S" depart="265" departLane="random" departSpeed="10"/>
    <vehicle id="N_S_145" type="car" route="N_S" depart="267" departLane="random" departSpeed="10"/>
    <vehicle id="S_E_146" type="car" route="S_E" depart="268" departLane="random" departSpeed="10"/>
    <vehicle id="N_W_147" type="car" route="N_W" depart="269" departLane="random" departSpeed="10"/>
    <vehicle id="W_S_148" type="car" route="W_S" depart="271" departLane="random" departSpeed="10"/>
    <vehicle id="E_W_149" type="car" route="E_W" depart="273" departLane="random" departSpeed="10"/>
    <vehicle id="E_S_150" type="car" route="E_S" depart="275" departLane="random" departSpeed="10"/>
    <vehicle id="N_S_151" type="car" route="N_S" depart="275" departLane="random" departSpeed="10"/>
    <vehicle id="N_S_152" type="car" route="N_S" depart="275" departLane="random" departSpeed="10"/>
    <vehicle id="N_S_153" type="car" route="N_S" depart="280" departLane="random" departSpeed="10"/>
    <vehicle id="E_N_154" type="car" route="E_N" depart="281" departLane="random" departSpeed="10"/>
    <vehicle id="E_S_155" type="car" route="E_S" depart="281" departLane="random" departSpeed="10"/>
    <vehicle id="W_E_156" type="car" route="W_E" depart="285" departLane="random" departSpeed="10"/>
    <vehicle id="N_W_157" type="car" route="N_W" depart="285" departLane="random" departSpeed="10"/>
    <vehicle id="E_N_158" type="car" route="E_N" depart="286" departLane="random" departSpeed="10"/>
    <vehicle id="W_N_159" type="car" route="W_N" depart="287" departLane="random" departSpeed="10"/>
    <vehicle id="E_W_160" type="car" route="E_W" depart="292" departLane="random" departSpeed="10"/>
    <vehicle id="E_W_161" type="car" route="E_W" depart="292" departLane="random" departSpeed="10"/>
    <vehicle id="N_E_162" type="car" route="N_E" depart="295" departLane="random" departSpeed="10"/>
    <vehicle id="S_E_163" type="car" route="S_E" depart="295" departLane="random" departSpeed="10"/>
    <vehicle id="S_E_164" type="car" route="S_E" depart="295" departLane="random" departSpeed="10"/>
    <vehicle id="S_W_165" type="car" route="S_W" depart="298" departLane="random" departSpeed="10"/>
    <vehicle id="N_E_166" type="car" route="N_E" depart="299" departLane="random" departSpeed="10"/>
    <vehicle id="W_S_167" type="car" route="W_S" depart="300" departLane="random" departSpeed="10"/>
    <vehicle id="E_N_168" type="car" route="E_N" depart="303" departLane="random" departSpeed="10"/>
    <vehicle id="S_E_169" type="car" route="S_E" depart="305" departLane="random" departSpeed="10"/>
    <vehicle id="S_W_170" type="car" route="S_W" depart="306" departLane="random" departSpeed="10"/>
    <vehicle id="S_N_171" type="car" route="S_N" depart="311" departLane="random" departSpeed="10"/>
    <vehicle id="N_E_172" type="car" route="N_E" depart="311" departLane="random" departSpeed="10"/>
    <vehicle id="E_N_173" type="car" route="E_N" depart="312" departLane="random" departSpeed="10"/>
    <vehicle id="N_W_174" type="car" route="N_W" depart="312" departLane="random" departSpeed="10"/>
    <vehicle id="S_W_175" type="car" route="S_W" depart="313" departLane="random" departSpeed="10"/>
    <vehicle id="S_N_176" type="car" route="S_N" depart="313" departLane="random" departSpeed="10"/>
    <vehicle id="N_E_177" type="car" route="N_E" depart="314" departLane="random" departSpeed="10"/>
    <vehicle id="W_E_178" type="car" route="W_E" depart="316" departLane="random" departSpeed="10"/>
    <vehicle id="E_W_179" type="car" route="E_W" depart="316" departLane="random" departSpeed="10"/>
    <vehicle id="N_S_180" type="car" route="N_S" depart="318" departLane="random" departSpeed="10"/>
    <vehicle id="E_S_181" type="car" route="E_S" depart="318" departLane="random" departSpeed="10"/>
    <vehicle id="E_W_182" type="car" route="E_W" depart="319" departLane="random" departSpeed="10"/>
    <vehicle id="N_E_183" type="car" route="N_E" depart="321" departLane="random" departSpeed="10"/>
    <vehicle id="W_N_184" type="car" route="W_N" depart="322" departLane="random" departSpeed="10"/>
    <vehicle id="N_E_185" type="car" route="N_E" depart="322" departLane="random" departSpeed="10"/>
    <vehicle id="W_E_186" type="car" route="W_E" depart="323" departLane="random" departSpeed="10"/>
    <vehicle id="S_E_187" type="car" route="S_E" depart="324" departLane="random" departSpeed="10"/>
    <vehicle id="S_E_188" type="car" route="S_E" depart="326" departLane="random" departSpeed="10"/>
    <vehicle id="W_N_189" type="car" route="W_N" depart="328" departLane="random" departSpeed="10"/>
    <vehicle id="E_W_190" type="car" route="E_W" depart="334" departLane="random" departSpeed="10"/>
    <vehicle id="W_E_191" type="car" route="W_E" depart="335" departLane="random" departSpeed="10"/>
    <vehicle id="N_E_192" type="car" route="N_E" depart="336" departLane="random" departSpeed="10"/>
    <vehicle id="N_E_193" type="car" route="N_E" depart="337" departLane="random" departSpeed="10"/>
    <vehicle id="E_S_194" type="car" route="E_S" depart="338" departLane="random" departSpeed="10"/>
    <vehicle id="W_N_195" type="car" route="W_N" depart="339" departLane="random" departSpeed="10"/>
    <vehicle id="E_S_196" type="car" route="E_S" depart="339" departLane="random" departSpeed="10"/>
    <vehicle id="S_W_197" type="car" route="S_W" depart="343" departLane="random" departSpeed="10"/>
    <vehicle id="E_N_198" type="car" route="E_N" depart="343" departLane="random" departSpeed="10"/>
    <vehicle id="W_N_199" type="car" route="W_N" depart="344" departLane="random" departSpeed="10"/>
    <vehicle id="W_S_200" type="car" route="W_S" depart="349" departLane="random" departSpeed="10"/>
    <vehicle id="S_E_201" type="car" route="S_E" depart="350" departLane="random" departSpeed="10"/>
    <vehicle id="S_N_202" type="car" route="S_N" depart="350" departLane="random" departSpeed="10"/>
    <vehicle id="E_N_203" type="car" route="E_N" depart="350" departLane="random" departSpeed="10"/>
    <vehicle id="E_W_204" type="car" route="E_W" depart="351" departLane="random" departSpeed="10"/>
    <vehicle id="N_W_205" type="car" route="N_W" depart="354" departLane="random" departSpeed="10"/>
    <vehicle id="W_E_206" type="car" route="W_E" depart="358" departLane="random" departSpeed="10"/>
    <vehicle id="S_E_207" type="car" route="S_E" depart="358" departLane="random" departSpeed="10"/>
    <vehicle id="S_N_208" type="car" route="S_N" depart="359" departLane="random" departSpeed="10"/>
    <vehicle id="W_N_209" type="car" route="W_N" depart="360" departLane="random" departSpeed="10"/>
    <vehicle id="E_W_210" type="car" route="E_W" depart="361" departLane="random" departSpeed="10"/>
    <vehicle id="W_S_211" type="car" route="W_S" depart="361" departLane="random" departSpeed="10"/>
    <vehicle id="W_S_212" type="car" route="W_S" depart="364" departLane="random" departSpeed="10"/>
    <vehicle id="E_N_213" type="car" route="E_N" depart="370" departLane="random" departSpeed="10"/>
    <vehicle id="S_N_214" type="car" route="S_N" depart="371" departLane="random" departSpeed="10"/>
    <vehicle id="E_W_215" type="car" route="E_W" depart="372" departLane="random" departSpeed="10"/>
    <vehicle id="N_S_216" type="car" route="N_S" depart="372" departLane="random" departSpeed="10"/>
    <vehicle id="W_S_217" type="car" route="W_S" depart="372" departLane="random" departSpeed="10"/>
    <vehicle id="E_W_218" type="car" route="E_W" depart="373" departLane="random" departSpeed="10"/>
    <vehicle id="W_N_219" type="car" route="W_N" depart="374" departLane="random" departSpeed="10"/>
    <vehicle id="S_E_220" type="car" route="S_E" depart="375" departLane="random" departSpeed="10"/>
    <vehicle id="S_E_221" type="car" route="S_E" depart="376" departLane="random" departSpeed="10"/>
    <vehicle id="E_W_222" type="car" route="E_W" depart="378" departLane="random" departSpeed="10"/>
    <vehicle id="S_W_223" type="car" route="S_W" depart="381" departLane="random" departSpeed="10"/>
    <vehicle id="N_E_224" type="car" route="N_E" depart="381" departLane="random" departSpeed="10"/>
    <vehicle id="W_N_225" type="car" route="W_N" depart="385" departLane="random" departSpeed="10"/>
    <vehicle id="N_S_226" type="car" route="N_S" depart="386" departLane="random" departSpeed="10"/>
    <vehicle id="N_E_227" type="car" route="N_E" depart="388" departLane="random" departSpeed="10"/>
    <vehicle id="S_W_228" type="car" route="S_W" depart="389" departLane="random" departSpeed="10"/>
    <vehicle id="N_E_229" type="car" route="N_E" depart="389" departLane="random" departSpeed="10"/>
    <vehicle id="E_N_230" type="car" route="E_N" depart="390" departLane="random" departSpeed="10"/>
    <vehicle id="N_W_231" type="car" route="N_W" depart="393" departLane="random" departSpeed="10"/>
    <vehicle id="N_S_232" type="car" route="N_S" depart="393" departLane="random" departSpeed="10"/>
    <vehicle id="S_N_233" type="car" route="S_N" depart="393" departLane="random" departSpeed="10"/>
    <vehicle id="N_W_234" type="car" route="N_W" depart="394" departLane="random" departSpeed="10"/>
    <vehicle id="E_S_235" type="car" route="E_S" depart="399" departLane="random" departSpeed="10"/>
    <vehicle id="N_S_236" type="car" route="N_S" depart="401" departLane="random" departSpeed="10"/>
    <vehicle id="W_N_237" type="car" route="W_N" depart="410" departLane="random" departSpeed="10"/>
    <vehicle id="W_N_238" type="car" route="W_N" depart="412" departLane="random" departSpeed="10"/>
    <vehicle id="W_E_239" type="car" route="W_E" depart="414" departLane="random" departSpeed="10"/>
    <vehicle id="W_E_240" type="car" route="W_E" depart="415" departLane="random" departSpeed="10"/>
    <vehicle id="N_W_241" type="car" route="N_W" depart="415" departLane="random" departSpeed="10"/>
    <vehicle id="N_S_242" type="car" route="N_S" depart="417" departLane="random" departSpeed="10"/>
    <vehicle id="W_E_243" type="car" route="W_E" depart="417" departLane="random" departSpeed="10"/>
    <vehicle id="S_W_244" type="car" route="S_W" depart="418" departLane="random" departSpeed="10"/>
    <vehicle id="E_W_245" type="car" route="E_W" depart="421" departLane="random" departSpeed="10"/>
    <vehicle id="N_W_246" type="car" route="N_W" depart="421" departLane="random" departSpeed="10"/>
    <vehicle id="S_N_247" type="car" route="S_N" depart="424" departLane="random" departSpeed="10"/>
    <vehicle id="W_N_248" type="car" route="W_N" depart="424" departLane="random" departSpeed="10"/>
    <vehicle id="S_E_249" type="car" route="S_E" depart="426" departLane="random" departSpeed="10"/>
    <vehicle id="E_W_250" type="car" route="E_W" depart="428" departLane="random" departSpeed="10"/>
    <vehicle id="S_E_251" type="car" route="S_E" depart="429" departLane="random" departSpeed="10"/>
    <vehicle id="E_S_252" type="car" route="E_S" depart="434" departLane="random" departSpeed="10"/>
    <vehicle id="N_E_253" type="car" route="N_E" depart="435" departLane="random" departSpeed="10"/>
    <vehicle id="W_N_254" type="car" route="W_N" depart="436" departLane="random" departSpeed="10"/>
    <vehicle id="E_N_255" type="car" route="E_N" depart="436" departLane="random" departSpeed="10"/>
    <vehicle id="S_N_256" type="car" route="S_N" depart="439" departLane="random" departSpeed="10"/>
    <vehicle id="S_W_257" type="car" route="S_W" depart="442" departLane="random" departSpeed="10"/>
    <vehicle id="E_S_258" type="car" route="E_S" depart="443" departLane="random" departSpeed="10"/>
    <vehicle id="N_S_259" type="car" route="N_S" depart="447" departLane="random" departSpeed="10"/>
    <vehicle id="N_S_260" type="car" route="N_S" depart="452" departLane="random" departSpeed="10"/>
    <vehicle id="E_S_261" type="car" route="E_S" depart="458" departLane="random" departSpeed="10"/>
    <vehicle id="S_N_262" type="car" route="S_N" depart="463" departLane="random" departSpeed="10"/>
    <vehicle id="W_S_263" type="car" route="W_S" depart="464" departLane="random" departSpeed="10"/>
    <vehicle id="W_S_264" type="car" route="W_S" depart="465" departLane="random" departSpeed="10"/>
    <vehicle id="S_W_265" type="car" route="S_W" depart="465" departLane="random" departSpeed="10"/>
    <vehicle id="S_W_266" type="car" route="S_W" depart="470" departLane="random" departSpeed="10"/>
    <vehicle id="E_W_267" type="car" route="E_W" depart="472" departLane="random" departSpeed="10"/>
    <vehicle id="S_E_268" type="car" route="S_E" depart="476" departLane="random" departSpeed="10"/>
    <vehicle id="S_E_269" type="car" route="S_E" depart="476" departLane="random" departSpeed="10"/>
    <vehicle id="W_E_270" type="car" route="W_E" depart="476" departLane="random" departSpeed="10"/>
    <vehicle id="E_N_271" type="car" route="E_N" depart="478" departLane="random" departSpeed="10"/>
    <vehicle id="W_E_272" type="car" route="W_E" depart="480" departLane="random" departSpeed="10"/>
    <vehicle id="N_W_273" type="car" route="N_W" depart="485" departLane="random" departSpeed="10"/>
    <vehicle id="N_E_274" type="car" route="N_E" depart="485" departLane="random" departSpeed="10"/>
    <vehicle id="E_S_275" type="car" route="E_S" depart="486" departLane="random" departSpeed="10"/>
    <vehicle id="W_N_276" type="car" route="W_N" depart="490" departLane="random" departSpeed="10"/>
    <vehicle id="N_W_277" type="car" route="N_W" depart="494" departLane="random" departSpeed="10"/>
    <vehicle id="N_S_278" type="car" route="N_S" depart="496" departLane="random" departSpeed="10"/>
    <vehicle id="N_W_279" type="car" route="N_W" depart="497" departLane="random" departSpeed="10"/>
    <vehicle id="W_E_280" type="car" route="W_E" depart="498" departLane="random" departSpeed="10"/>
    <vehicle id="W_E_281" type="car" route="W_E" depart="499" departLane="random" departSpeed="10"/>
    <vehicle id="S_W_282" type="car" route="S_W" depart="501" departLane="random" departSpeed="10"/>
    <vehicle id="E_S_283" type="car" route="E_S" depart="504" departLane="random" departSpeed="10"/>
    <vehicle id="N_W_284" type="car" route="N_W" depart="508" departLane="random" departSpeed="10"/>
    <vehicle id="E_W_285" type="car" route="E_W" depart="509" departLane="random" departSpeed="10"/>
    <vehicle id="W_S_286" type="car" route="W_S" depart="523" departLane="random" departSpeed="10"/>
    <vehicle id="N_E_287" type="car" route="N_E" depart="526" departLane="random" departSpeed="10"/>
    <vehicle id="E_S_288" type="car" route="E_S" depart="532" departLane="random" departSpeed="10"/>